39
 energy: -52.264868866987 gnorm: 0.115278166555 xtb: 6.4.1 (79825abcba525fcdf90b791dcacef51065a7a4e7)
C         4.05996711276503    1.44197237672948    3.67468996509269
C         3.75769958404573    1.94163849568590    2.25586663195169
N         4.84962800464658    1.68312914685684    1.33340092494573
C         4.86341757385801    1.18582065809861    0.05653103898331
N         5.96795419234477    0.84354122102943   -0.53769113591914
C         5.59450076440762    0.52545351138301   -1.91469813959510
C         4.09862872469340    0.69172302167334   -2.14187830020063
C         3.57084213895533    1.15080043753481   -0.78191608484239
C         2.91681462181802    2.53328073401449   -1.07264317251839
N         2.24562480941253    3.24169887658127    0.03660417335554
C         3.03611015692807    4.03396446380421    0.97250914518292
C         3.40971523913278    3.45443954475169    2.36661975009666
N         4.54899487557995    4.25631546766135    2.87369178673426
N         2.61159830759944    0.24616081770201   -0.13390731266647
C         1.28094863191736    0.03448730717298   -0.37530808662461
C         0.72141405117854    0.50816598583529   -1.69348181984144
N         0.54015909245799   -0.67358766327573    0.40994198231232
H         3.16599785810959    1.49047891185323    4.30214843708882
H         4.80876030055568    2.09930364925177    4.12618191193008
H         4.39825883463547    0.40198770493999    3.71721689245140
H         2.88318367451055    1.45418985715234    1.81819901093493
H         5.79909099070197    1.77388882903503    1.69015360368060
H         6.06617312765956   -0.44968682728472   -2.08628695181837
H         6.21309636759499    1.14887603910410   -2.56410041825132
H         3.62431882438667   -0.29278263319295   -2.23318003341475
H         3.78660019745057    1.28538970141652   -3.01057516654632
H         2.22166247914602    2.43726200208832   -1.91428487646233
H         3.75583420645821    3.09842410942138   -1.49802039646241
H         1.54887485459419    2.62430935443908    0.45016650644640
H         2.54837889849007    5.00932733491191    1.10455136559062
H         4.03701046673882    4.24570514020412    0.57526185493232
H         2.56960177732733    3.69140511332284    3.03355075838385
H         5.46960357600404    4.13965369596334    2.44328812312985
H         4.68954210749891    4.35026392849106    3.87758693253993
H         3.03560296509693   -0.21171534605269    0.66663318074775
H         1.36277099683579    0.07298204801122   -2.45534508587237
H         0.73588136050702    1.59658927764684   -1.80136180989220
H        -0.24305459545116    0.04951074598746   -1.93398975330134
H         0.96504924781435   -1.17166437016769    1.19378688487172
