39
 energy: -52.263225047285 gnorm: 0.121396421133 xtb: 6.4.1 (79825abcba525fcdf90b791dcacef51065a7a4e7)
C         3.50424943020759    1.33229240197376    3.61294471275170
C         3.47193472606695    1.97720090469764    2.22113282339167
N         4.55667113940797    1.41282613589564    1.43697352553785
C         4.77409034163837    1.37131218379680    0.08460223260404
N         5.96979884808808    1.38222654585668   -0.42570984068931
C         5.71601629462960    1.05773936864270   -1.82824256416711
C         4.26191219717784    0.64921390703261   -2.01686325808788
C         3.53063223141392    1.25559332464741   -0.81838855829167
C         2.79699789165972    2.59236348547671   -1.13200009837956
N         2.34936444025830    3.50645847217442   -0.06109564080719
C         3.41578516766181    4.11853289808193    0.72413152494626
C         3.57742146078428    3.52842515457080    2.15403391302913
N         4.87082167680326    3.99884194206239    2.70531340022472
N         2.65353898489790    0.32244287081978   -0.09840618316466
C         1.39731463445083   -0.19499684491675   -0.26533456717666
C         0.53407556942604    0.19896550299685   -1.43778687123380
N         0.88534216750057   -1.08395378341804    0.51850006624140
H         2.90931563210670    2.02523450285758    4.21387987730315
H         4.48392580019735    1.27998077895393    4.09680246263911
H         3.12497352430908    0.31671166847491    3.76315625775157
H         2.51093557395280    1.69164611353850    1.78653381635270
H         5.37353203160720    1.41636785808447    2.04501588252730
H         6.28735737586368    0.16874824951365   -2.12163715059896
H         5.91423391736928    1.91991093747849   -2.46887463660693
H         4.02317323490487   -0.42066969980838   -2.04703019659782
H         3.90130557715744    1.03136975862677   -2.98037555862198
H         1.89868833765356    2.35349257851520   -1.71234266533672
H         3.52677636596850    3.18518483500277   -1.69792669060831
H         1.69916583097417    2.95570666512172    0.49709639263790
H         3.30765056332130    5.20315742447246    0.86031597941823
H         4.42306981008596    3.94885369136838    0.32284911451459
H         2.84383497550825    4.08168664832953    2.75610772445953
H         5.61708303476910    4.13980773853697    2.02003951723892
H         5.22468400844272    3.32731375866152    3.38370609951408
H         3.17491249436274   -0.28832939692018    0.52241788244508
H         1.05273387698882    0.24503426814703   -2.39174213586820
H        -0.01690845615517    1.12443766370836   -1.24691900886490
H        -0.22745070493575   -0.57800716760919   -1.55944076119309
H         1.55261941715397   -1.23510812581051    1.27673375326741
