39
 energy: -52.270639094203 gnorm: 0.106063675695 xtb: 6.4.1 (79825abcba525fcdf90b791dcacef51065a7a4e7)
C         3.89005376904029    1.37294061296225    3.65917263466348
C         3.66211501878057    1.93162302037784    2.24849569405985
N         4.77880280572024    1.52601383731353    1.41269229691832
C         4.79626555351750    1.31942670542938    0.05810033083629
N         5.90222767589737    1.17196330892002   -0.60925166223037
C         5.58791674558899    0.64490853505382   -1.93598352804712
C         4.09095289054245    0.38001241504355   -2.01226455391279
C         3.53084757252564    1.12485444829266   -0.79970513670491
C         2.97331759526673    2.55032754996983   -1.08380499625066
N         2.41927378283826    3.44276937988919   -0.04488020822149
C         3.38449749465576    4.08827270925591    0.83837433690847
C         3.54410206106724    3.48333461728945    2.26229517272722
N         4.48240640600366    4.34602276814908    3.01955288101310
N         2.61233025105680    0.24759252201733   -0.06134588860569
C         1.32884472548192   -0.05481347051499   -0.42866603291662
C         0.70105171797343    0.31206403863267   -1.75014598167530
N         0.56382820461309   -0.64872165604378    0.42501995788679
H         3.44096579271688    2.03472773105091    4.40455565391418
H         4.92774481486085    1.14913242580713    3.92323285855757
H         3.48311533651326    0.36772840770329    3.80671070356114
H         2.68533159005194    1.65079639873854    1.84728785243971
H         5.62632368795321    1.82234628195254    1.89319743248308
H         6.10668217345904   -0.31857514721272   -2.00945355467014
H         5.90964183661907    1.32953311127513   -2.72390588542138
H         3.88034288025671   -0.67145275751523   -1.78287039248397
H         3.64061866402440    0.58484958191289   -2.99189560027890
H         2.15896485379735    2.42839851996957   -1.80684010944009
H         3.73631807939429    3.12330477585698   -1.62585114342939
H         1.67114144896829    2.95909634437895    0.44910615326026
H         3.09325169163692    5.14144955230788    0.95082021268635
H         4.33051283594095    4.20391652739921    0.29420301456233
H         2.57188459500843    3.67762152214270    2.73535550774464
H         5.33161711625984    4.55275816278791    2.48806505647252
H         4.72862542589805    3.94636332084641    3.92289878462297
H         3.05974650775839   -0.13339335668866    0.76627966648509
H         1.44765724544785    0.39971769863654   -2.53503861379074
H         0.05461880184487    1.17047799189942   -1.54578690793448
H         0.10023464728983   -0.56170816348991   -2.02208247288698
H         0.93452006786303   -0.67622490071363    1.37625914893744
