39
 energy: -52.275943475949 gnorm: 0.106223949022 xtb: 6.4.1 (79825abcba525fcdf90b791dcacef51065a7a4e7)
C         4.10017850812654    1.83521860753214    3.94996379089037
C         3.67786753515153    2.03350096381326    2.48831092540661
N         4.66134802649812    1.36866505682115    1.65115078990445
C         4.73252344696952    1.17433296682511    0.29650260381218
N         5.84157982032766    0.70677484244582   -0.19506604339808
C         5.67020525926764    0.61628395377916   -1.64394067845079
C         4.17137585103756    0.53935909582846   -1.89787475641644
C         3.55106928706086    1.24392995672867   -0.69056052035209
C         3.02514789996838    2.69041932687468   -0.92422957169577
N         2.07824309846333    3.06070126445974    0.14770527282443
C         2.63911638271937    4.01950116702525    1.09353500238071
C         3.64090408697408    3.56068433760806    2.19120652926065
N         4.96822483162948    4.14603117138639    1.88514466811735
N         2.50033511135304    0.39456132922029   -0.11352706175526
C         1.35313769520258   -0.03887892382099   -0.72161935339936
C         0.77707313777767    0.52326177601368   -1.99722897259831
N         0.61152928594044   -0.91797981263119   -0.13514207894308
H         3.22156029221899    2.07210919037240    4.55589359885383
H         4.97164085263418    2.45078183969234    4.19132639849844
H         4.44036182688948    0.79668077809319    4.00939810689250
H         2.69822660155432    1.57358864750584    2.33757440315241
H         5.56306481400424    1.12178486942395    2.05481744555424
H         6.15083821163410   -0.32999016585102   -1.92029819839915
H         6.10582583163937    1.46795915643914   -2.17112523504664
H         3.78074652667608   -0.47565585027014   -2.03826939621612
H         3.98224439304435    1.00439422181184   -2.87378858596113
H         2.46237673101771    2.71586302606091   -1.86415408644363
H         3.89783784334105    3.34595330593755   -1.03813367867786
H         1.67571269827875    2.21959612912533    0.55779740564586
H         1.83333211467477    4.49056006415535    1.67272831200739
H         3.07990637150393    4.84795336574616    0.52449010594072
H         3.40043107914908    4.04466725674746    3.14759219996264
H         5.43329568859439    3.59940244540136    1.15625249627097
H         5.52468040131549    4.03693674247162    2.73062731687629
H         2.65708383437533   -0.10485562196793    0.75613273802616
H         1.45141038618737    0.54700196667758   -2.84920614570138
H         0.47276924659141    1.52207873778547   -1.67122822935267
H        -0.13493115281105   -0.00607459945883   -2.29126918123370
H         1.04774483134658   -1.25033578362057    0.72641488116549
