39
 energy: -52.260799060005 gnorm: 0.120327632355 xtb: 6.4.1 (79825abcba525fcdf90b791dcacef51065a7a4e7)
C         3.81949532256626    1.67970657912118    3.86575467840227
C         3.66077202747555    1.97379839711734    2.36828732580718
N         4.72428703182120    1.28381496480806    1.65910719176033
C         4.84800348288583    1.13714329968549    0.30224158578516
N         5.99606281107915    1.11346083615885   -0.30739378268409
C         5.65858018747190    0.88384972774484   -1.71102470508480
C         4.18696303796594    0.56955585820258   -1.94004844327636
C         3.62110081509389    1.11984016661791   -0.63016482324191
C         3.19709630842524    2.60269657025173   -0.84202111879387
N         2.11859843345646    3.05650034789155    0.06002443937339
C         2.60421270817465    3.98685810844312    1.07347556697812
C         3.64303387644105    3.51141794195406    2.12883403882003
N         4.96553939972754    4.09153431074209    1.79338019393342
N         2.50269743129196    0.36236962254401   -0.05236799952187
C         1.30843441800501   -0.11158215562576   -0.52439989718519
C         0.71433277360274    0.60665603646429   -1.71023696311235
N         0.62443298780085   -1.07563400485817   -0.00526307929808
H         3.03461832386359    2.11133449328184    4.49257481899387
H         4.81527044596274    2.02101076817716    4.16335168102420
H         3.73697299067959    0.58908736200513    3.90522289855949
H         2.70594108221944    1.75176813440956    1.88565119488678
H         5.59119999818637    1.40868575364533    2.17858669752862
H         6.20049761789543    0.00399877890323   -2.07845365031051
H         5.86937023497572    1.82880958118987   -2.21665097387257
H         3.95959132159222   -0.45318649287281   -2.26386542792882
H         3.85370627867378    1.22672924070610   -2.75337449238170
H         2.87825850126294    2.69870637914583   -1.88602372108677
H         4.07898884981706    3.25013480404521   -0.75613771345235
H         1.46702182097791    2.32913196461854    0.34993353020937
H         1.77491476110028    4.26911274482441    1.73623261149012
H         3.09895655526008    4.83504788261012    0.58332906884444
H         3.44527432737585    4.09996187378029    3.03506109974473
H         5.34893139470662    3.83825088447177    0.87946786322733
H         5.62006561893609    3.69578682106507    2.46521697347853
H         2.83970939996052   -0.16060589510018    0.74963895368275
H         1.33930764941498    0.44098475800602   -2.58380370493704
H         0.66964299815274    1.69720818594433   -1.63804634117672
H        -0.28188411747970    0.16096470617811   -1.79579169338391
H         0.95302549996646   -1.49551261732457    0.86580166459423
