39
 energy: -52.267923087114 gnorm: 0.118456345782 xtb: 6.4.1 (79825abcba525fcdf90b791dcacef51065a7a4e7)
C         3.73772788452110    1.53203767977715    3.71127767059112
C         3.66093211815333    2.10727045031068    2.29096038034623
N         4.70411880955540    1.48032037153645    1.49800838550737
C         4.69868955071226    1.29456730127540    0.14030115896005
N         5.79939786675748    1.10169709727654   -0.52415248185694
C         5.49906163881062    0.87859580985382   -1.93724112212931
C         4.00949952662392    0.56648459804977   -1.96333397093613
C         3.41069870751384    1.18341638885275   -0.69856493070112
C         2.85900031045015    2.57980428962604   -1.10997190303419
N         2.50740436864719    3.47221912353184    0.01375304182594
C         3.49741716658809    4.16010766087342    0.83543057661605
C         3.65568367948956    3.66348447834013    2.30079448530653
N         4.80622406766768    4.32080396122249    2.96583060268640
N         2.50233347638968    0.26618009016190    0.00285300078295
C         1.36688911540821   -0.29466050341795   -0.51669728501573
C         0.78276045338412    0.06279922406448   -1.86059038709348
N         0.71131117487946   -1.17509469702071    0.16286887994801
H         2.93393611985068    1.77797429923735    4.41032846957810
H         4.57290533216793    1.81855181538851    4.35703992938720
H         3.86298374456218    0.44600796372123    3.65962139001913
H         2.69388268160183    1.78387469527672    1.89831834103717
H         5.64248219106227    1.77355510305636    1.76348403032647
H         6.18799665955110    0.05253751053915   -2.15127953437949
H         5.78267507911474    1.71050594848846   -2.58572274939418
H         3.83466295948785   -0.51331951634289   -2.04087434639510
H         3.44359838618688    0.99750644978953   -2.79904459390935
H         1.91747101514096    2.42915013600812   -1.65001150072388
H         3.56416443930751    3.02604323342050   -1.82264365381685
H         1.61280161670765    3.20172718171103    0.41894946838107
H         3.23886485275506    5.22693703182425    0.87636283913347
H         4.49713516868457    3.99795748800021    0.41268693437384
H         2.71818466331322    3.94228362954715    2.80090137951345
H         5.71516368126782    4.19104296696602    2.51486660912777
H         4.96153938608019    3.95402364255528    3.90270554173916
H         3.04230505576154   -0.24210057044626    0.69594540253317
H         1.43559330310088   -0.02287403276675   -2.72524568297393
H         0.39270894407629    1.06876979394981   -1.68060234277196
H        -0.06958197606471   -0.62234658043284   -1.91055117475086
H         0.92186019074265   -1.39203408894498    1.13838479002421
