39
 energy: -52.252687878102 gnorm: 0.111389486783 xtb: 6.4.1 (79825abcba525fcdf90b791dcacef51065a7a4e7)
C         3.95488173755046    2.01420178944620    3.95715452812562
C         3.67292962794565    2.14550620666371    2.45470528866228
N         4.49377511384159    1.15707457580081    1.77699342497393
C         4.60908202778210    0.97459463582480    0.42373513110817
N         5.74624071685759    0.57241286465463   -0.06142083619149
C         5.70847951477307    0.46203167533316   -1.51853635225610
C         4.28769958840359    0.84978463139620   -1.90314209394311
C         3.51575480803770    1.21683998598147   -0.63500188338018
C         3.05640772102836    2.69404942181401   -0.80929633488390
N         2.03375961242832    3.14425627856251    0.15728855746330
C         2.62940137989308    4.04960517259311    1.13403020410101
C         3.88532638157258    3.59560063997940    1.93121685411142
N         5.19190334167891    3.92950962327112    1.31522450359184
N         2.37569583484542    0.42338270321435   -0.15632869042429
C         1.24348227929113   -0.16702231605676   -0.64950507645905
C         0.73547816887018    0.57229826182523   -1.86209294475284
N         0.72098679909357   -1.22188045605678   -0.11938268418899
H         3.05857276583031    2.30459508856934    4.51171742833745
H         4.81279480215319    2.66033156684482    4.16481315793370
H         4.10175833268994    0.94844788382570    4.15818644324913
H         2.60156634842889    1.96332868493324    2.34099830013048
H         5.42307842162808    1.12140249090445    2.19185802562501
H         5.94908474016530   -0.54307091736356   -1.88554332814816
H         6.46823681613280    1.18331187498195   -1.82766934042525
H         3.82981741231665    0.06081663949882   -2.51177225857079
H         4.37259710353792    1.71676395774044   -2.57065646793804
H         2.68604251774245    2.98289460103158   -1.79935438077621
H         4.02333964297913    3.20716586544116   -0.73157336120980
H         1.50952474383410    2.34621990205625    0.51222499405167
H         1.84706175653548    4.12384104387179    1.90154790072703
H         2.78059560628133    4.99622221423692    0.59971059966137
H         3.68812334242445    4.23224502029852    2.80444946032641
H         5.57195426998951    3.09129088178191    0.86876252593762
H         5.87295127475793    4.28742242025999    1.98190092137278
H         2.59681277451914    0.06401231648844    0.76684834977641
H         0.46120156664756   -0.07736863439041   -2.68905406329458
H         1.52492524749242    1.17699037875291   -2.31776104093701
H        -0.07928498725652    1.24582781089574   -1.57761550569227
H         1.08085035827125   -1.39222783238230    0.82109850869232
