39
 energy: -52.252246309930 gnorm: 0.135250848126 xtb: 6.4.1 (79825abcba525fcdf90b791dcacef51065a7a4e7)
C         3.96282797114414    1.84609911265969    3.92513945261703
C         3.62738921397267    2.13877883237565    2.45683737973760
N         4.54639517008033    1.28518828845936    1.72411028739407
C         4.61847526398128    1.09428381188990    0.36902263784201
N         5.77538938638817    0.76437919778356   -0.12389623213380
C         5.63131880434065    0.73447016945654   -1.57824992340071
C         4.14486914282682    0.84780656350366   -1.88567763561365
C         3.43887124456620    1.29004983203880   -0.60318169337110
C         2.75866567964675    2.66286801444887   -0.87925520972030
N         2.05328360288166    3.34835296578075    0.22316403132773
C         2.70455862406404    4.14528589858294    1.25718951092412
C         3.85594106328969    3.65299855092838    2.17965680099885
N         5.20293372526161    3.92257567915518    1.62196147762324
N         2.49279269007378    0.28036522807929   -0.10930991862157
C         1.45136698306513   -0.31756907979914   -0.76628453688914
C         0.82831087362683    0.56439594145484   -1.81936156686058
N         0.93757707062134   -1.45409887702741   -0.43300247881292
H         3.23511284820436    2.44619421651219    4.47790940279336
H         4.95456844743088    2.24363784751764    4.15973357640900
H         3.86221014133896    0.77592304631400    4.13109379148601
H         2.64867453564403    1.99798079402522    1.99183125755705
H         5.48738299269948    1.05870304520745    2.04071116368075
H         6.06813529019423   -0.24258614637710   -1.81776721546984
H         6.26108789641400    1.49992834681987   -2.03705724064060
H         3.68981886905765   -0.09819339607282   -2.20280629945388
H         3.86759267159314    1.55850578172920   -2.67463933475109
H         2.06990805094884    2.52587719579379   -1.72048246249160
H         3.56721205472010    3.31101791054924   -1.24042157178360
H         1.54596723342624    2.70756644412350    0.83118282810807
H         1.85565552753470    4.45396600048936    1.88227333299782
H         3.00501519815088    5.02256686796537    0.67021004193382
H         3.81680755435634    4.27817087273347    3.08208043538599
H         5.41807094519417    3.45047444907524    0.74036402548905
H         5.90716342727990    3.63078288133673    2.29672276366695
H         2.90656783608388   -0.26245822972731    0.64197461049392
H         1.51709927268137    0.66145053574073   -2.65441268813750
H         0.44892208305062    1.51773263020908   -1.44024949269159
H        -0.00735117466800   -0.06910537215814   -2.13361226519400
H         1.32392670805642   -2.02154349342516    0.32314925650306
