39
 energy: -52.267063214310 gnorm: 0.118099918234 xtb: 6.4.1 (79825abcba525fcdf90b791dcacef51065a7a4e7)
C         4.01632731937844    1.77505767432192    3.83642315402305
C         3.63911270291150    2.03881782971692    2.37278683885473
N         4.70524986456723    1.52869672085406    1.52827173994762
C         4.77018945634742    1.07969019231248    0.23518296212483
N         5.90456467218402    0.80388544699741   -0.33698918934835
C         5.57112198770996    0.38040109243044   -1.69576530147711
C         4.06264092554860    0.23641878303341   -1.83944384091925
C         3.52396750891034    1.06345262316094   -0.67125979332522
C         3.21151928328918    2.50832916544228   -1.15935189601594
N         2.54674482481362    3.34171973310038   -0.13645561843083
C         3.23534755486489    4.21744011959237    0.80556882365935
C         3.47670824327763    3.57715208717925    2.20226153147840
N         4.71422717122306    4.16814806261637    2.76560494714088
N         2.41266313222451    0.34059423787395   -0.03808107438189
C         1.20085037377842   -0.05856243442369   -0.53395643623507
C         0.51199812911600    0.81679143441248   -1.55094740254041
N         0.65199093759652   -1.13261965251781   -0.07361808511994
H         3.14699980230195    1.59126202942298    4.47339008934706
H         4.55166310769430    2.67002250482904    4.16668693717266
H         4.58731284739487    0.84762505249375    3.94441485748649
H         2.69947221931705    1.55067571972387    2.10310139639935
H         5.65083459437293    1.81480909366766    1.77525147908466
H         6.18229291563299   -0.47031917606845   -2.02066734951551
H         5.95884494088029    1.20036516346109   -2.30434506212149
H         3.88074154510418   -0.84337480905766   -1.78015068325142
H         3.77486867969266    0.54347716665756   -2.85302090318833
H         2.46746544282120    2.45282207327923   -1.96192258461136
H         4.08017906498210    3.00346394345029   -1.61163323295936
H         1.70974577751914    2.88219545297758    0.21841641047855
H         2.61846738062891    5.12262180158207    0.88775538859286
H         4.19115972068886    4.43642602297714    0.31271059774383
H         2.62791992576186    3.81824148264717    2.85661203457467
H         4.65253732318678    5.17598911654253    2.60181105663493
H         5.41272513014415    3.86712582091016    2.08894290590127
H         2.84131033339633   -0.43787375506447    0.45237258748604
H        -0.37080836763130    0.26261210988462   -1.85867682034382
H         1.06743131719722    0.88179218445012   -2.49104395938028
H         0.20465979230815    1.74203501902678   -1.05307600934807
H         1.17701067231263   -1.75354646466405    0.54430509364591
