39
 energy: -52.263738353364 gnorm: 0.110415004602 xtb: 6.4.1 (79825abcba525fcdf90b791dcacef51065a7a4e7)
C         3.52190586488681    1.72251928093640    3.83518858488498
C         3.59580724123516    2.20287836886083    2.37989298629887
N         4.60650535843390    1.50510815657258    1.60421018761768
C         4.59990658849251    1.31826779299685    0.24665733738294
N         5.72408099158239    1.23675092472905   -0.40129580791135
C         5.45205409687557    0.85013775759213   -1.78452650896368
C         4.00852427362582    0.37032599845123   -1.83830259044372
C         3.36691580420599    1.08426481739949   -0.64774056911485
C         2.81618261859461    2.49529073443840   -1.00721915482028
N         2.59487660680067    3.25514122789339    0.24035152721891
C         3.50536211576664    4.21408180630546    0.85672728797328
C         3.89897903290636    3.72604799540047    2.28005543118927
N         5.29480168537023    4.18463510749934    2.47870618743476
N         2.32417293253579    0.29116990435751    0.01718403923025
C         1.31117474011840   -0.36910405153225   -0.62436219281990
C         0.77483540014746    0.22332320406427   -1.90358168354678
N         0.67712778069446   -1.36729149374846   -0.10632427920927
H         2.58280507307681    2.06815611793980    4.27548726517775
H         4.47044445770835    2.01335261171828    4.29596090515181
H         3.43792387602766    0.63467665158528    3.74937838099310
H         2.58911764267842    2.04067470761809    1.98720580109443
H         5.51816946291728    1.60738360511857    2.04624870693289
H         6.22423654937703    0.16907301682230   -2.16228476023980
H         5.53091252251078    1.79159052127538   -2.33269394110633
H         3.91472885480457   -0.71515235162088   -1.71381790797085
H         3.61625794151190    0.65446855281002   -2.82310019139749
H         1.83141456254829    2.50428085317327   -1.48781036918288
H         3.54347833899326    3.10329706268747   -1.56008072699103
H         1.60029772367946    3.26923449694222    0.46007488239988
H         3.13833215083519    5.24629973827626    0.93713130952295
H         4.42851188887252    4.18077572392765    0.26416829690839
H         3.25676243472971    4.23822462988955    3.00942037472894
H         5.95505714365409    3.99536788345183    1.72067036327270
H         5.73120570590204    3.79475536162510    3.31173116774899
H         2.77366950140545   -0.30503060205135    0.70478379241002
H         1.46211340846369    0.20740100086603   -2.74533868408917
H         0.36291417839031    1.21450142430014   -1.69287025605684
H        -0.04768344005565   -0.44063174855723   -2.18824824450387
H         1.29564325613992   -1.71683687902355    0.62735243484726
