39
 energy: -52.253871718301 gnorm: 0.122177771027 xtb: 6.4.1 (79825abcba525fcdf90b791dcacef51065a7a4e7)
C         3.98729231780310    1.50041514677740    3.76115876293874
C         3.72350186391852    2.06051474712152    2.35730884922828
N         4.68110195499496    1.51201382735719    1.41273139935240
C         4.64607121136311    1.34566720327342    0.05295043804268
N         5.76258477318905    0.94668375857473   -0.48040315206188
C         5.52816302735552    0.63730162419251   -1.88970251236093
C         4.02368332804138    0.65181198533620   -2.12039673121777
C         3.40690092298969    1.25792276542016   -0.85904144293729
C         2.76957269286270    2.65603518251764   -1.10928209857834
N         2.49532047935246    3.50271523917084    0.06999747075603
C         3.53412159598201    4.10653155539644    0.89750460354630
C         3.62291755483422    3.61346368854953    2.36990863296020
N         4.73010019168957    4.33463399447613    3.04232601482863
N         2.53456691822554    0.31444100007154   -0.14678271512289
C         1.29715964925640   -0.15714769360132   -0.49338902574084
C         0.67395210104668   -0.11924664910139   -1.86641790208911
N         0.60312827604384   -0.87176581511853    0.32782859571466
H         3.17491865120826    1.75489897201754    4.44710705236880
H         4.92795194280087    1.86155442430464    4.18702084165407
H         4.13438905215925    0.42165499772295    3.64954764427889
H         2.80934555410984    1.50605196209719    2.13186159353798
H         5.65416421672267    1.59935978676291    1.69997743317896
H         6.06335278558270   -0.24467329567007   -2.26186965407276
H         5.85473996179748    1.55349213632638   -2.38667529289713
H         3.78738703424978   -0.32909412818545   -2.54998317157350
H         3.84973030877849    1.32072202246480   -2.97288479193393
H         1.81136490229605    2.59713761444123   -1.63766241573028
H         3.30630351903841    3.19873109788084   -1.89775393027527
H         1.75927097312431    3.11765884914614    0.65959633794047
H         3.29270647333550    5.17755146976921    0.93334789571718
H         4.51805395630765    4.07478312230471    0.41241688250366
H         2.70734423271523    3.96429268522300    2.86527192232443
H         5.63326496463983    4.03437784601721    2.66746963881801
H         4.71848376320202    4.01546041917459    4.00895861941397
H         2.87634917841820   -0.18984626050390    0.66511312672155
H         1.06947614207161   -1.05261335497030   -2.25826832808261
H         1.09925919502233    0.74811531105885   -2.37955508500800
H        -0.41143226758703    0.02246213457270   -1.88278427295521
H         0.94621719272059   -0.95844843837785    1.28584790773707
