39
 energy: -52.270326250496 gnorm: 0.108759369282 xtb: 6.4.1 (79825abcba525fcdf90b791dcacef51065a7a4e7)
C         3.61408074663693    1.64324153250791    3.82519834840054
C         3.53091223828811    2.07914464734725    2.35646997750186
N         4.51729543747173    1.34119695869587    1.58669133177628
C         4.56930360639741    1.32993733915662    0.21735901788678
N         5.71181548941868    1.28878186719639   -0.40169606546340
C         5.56088141779930    1.07295568479471   -1.83955332888191
C         4.15611694347772    0.50052063494343   -1.96542796855395
C         3.41428563604583    1.12267862314901   -0.78161475165615
C         2.81511058933237    2.51061566308692   -1.15329476109671
N         2.54745623964916    3.28442108022320    0.07648897741981
C         3.68868979485569    3.93888418922065    0.70715052400022
C         3.83230813311736    3.59966060136176    2.21820161993148
N         5.04182061684297    4.27365705210565    2.74819546493711
N         2.54584432638623    0.10213909168471   -0.17933102489552
C         1.27095492260696   -0.28841264915980   -0.48890315254816
C         0.51519176084310    0.45180141469675   -1.56404853506805
N         0.81483118163844   -1.38988806073199    0.00653606631185
H         3.03979071676224    2.30490162238427    4.47913636940046
H         4.60643519948073    1.68947345704820    4.28314579873458
H         3.13672937693164    0.66650605671326    3.95145772601989
H         2.53471942187142    1.86933183533796    1.95958755058334
H         5.44640836273166    1.57483267427426    1.93187721808440
H         6.37999038199045    0.40060187133635   -2.12207248421519
H         5.58834960645878    2.06081028158325   -2.30477186202515
H         4.13176643008017   -0.58537280925487   -1.81443211810191
H         3.64711055445008    0.60774766554657   -2.93178765186708
H         1.87336203300318    2.34167591580230   -1.68750995696606
H         3.52908565509603    2.98249839831951   -1.84021030263432
H         1.70699092829737    3.85035157681886   -0.02841507964465
H         3.60574900201212    5.03024141853614    0.61382375608323
H         4.59986260704932    3.54120586633416    0.24233118755507
H         2.95845362513585    4.02194235877997    2.73278563322550
H         5.84960151925946    3.80854159780295    2.32684609289481
H         5.15534227038932    4.05402045646149    3.73574693417644
H         2.94027806615503   -0.37290591363053    0.62630529091503
H         1.08437531965471    0.65338603998618   -2.46768183014502
H         0.06700616182046    1.38516109793273   -1.21122843238049
H        -0.27552040406452   -0.26976486023745   -1.79323154549256
H         1.41037896534936   -1.71007195252453    0.77193138661272
