39
 energy: -52.271297494746 gnorm: 0.112442602289 xtb: 6.4.1 (79825abcba525fcdf90b791dcacef51065a7a4e7)
C         4.01900149012686    1.43642874063769    3.55236734708250
C         3.75584097101106    2.03990243063116    2.16648943130824
N         4.86725583332576    1.89070084421723    1.24314027680374
C         4.77988439010022    1.21926507691448    0.05173653933369
N         5.86556397639396    0.72603467266732   -0.46622096968438
C         5.59162773724919    0.18418565815085   -1.79594053561615
C         4.13150559291058    0.49587609372335   -2.09222068163502
C         3.52221313112991    1.11292386759925   -0.83252916900453
C         3.04818994001571    2.56819422766603   -1.11716259655812
N         2.41932260309054    3.41813307215082   -0.08521709298702
C         3.21088257243169    4.16150525361747    0.88910347673974
C         3.39918326913862    3.54830160039053    2.30596564310445
N         4.25551996829472    4.45125927669558    3.11184406528063
N         2.62761530466079    0.24486560021713   -0.05496469129519
C         1.31400235906406   -0.04030943693200   -0.31343093721342
C         0.63949354860484    0.61355241664490   -1.49348812612368
N         0.64999836080805   -0.88579461328861    0.40141903718208
H         3.43618099430782    1.95788307253724    4.31633311679815
H         5.04638508746820    1.62929732844926    3.87471075320616
H         3.81202052518344    0.36219189224661    3.58386373373099
H         2.88375732492787    1.60779543582729    1.66980958734653
H         5.81176411718934    1.88367580235315    1.62372471274501
H         5.91684446764357   -0.84948041826389   -1.96501074178299
H         6.21631388234732    0.70323977789554   -2.52627575161327
H         3.72180002007603   -0.44186015900137   -2.48636445975585
H         4.06808993739160    1.23562929008529   -2.90041610402681
H         2.37106659683582    2.47568352317298   -1.97376203878380
H         3.95395993976991    3.10118977752709   -1.43304727372162
H         1.58864823658759    3.02807094502451    0.35693192398839
H         2.60798985757488    5.07853329578995    0.93632216543055
H         4.18254859907484    4.37037347744045    0.42361432691523
H         2.41798312110515    3.65798126779362    2.78758470991272
H         5.16290020939240    4.56275371275498    2.65292386133490
H         4.49920239657316    3.82428443760469    3.87598196629530
H         3.20089091391499   -0.43540106254496    0.43379696790169
H        -0.14257052783777   -0.09435718504214   -1.75502053949531
H         1.32235801465109    0.73234222085841   -2.33971372442094
H         0.15374293647074    1.55184326641598   -1.20701807801821
H         1.18031270299020   -1.47998397008713    1.04073944891120
