39
 energy: -52.271052628258 gnorm: 0.117741051387 xtb: 6.4.1 (79825abcba525fcdf90b791dcacef51065a7a4e7)
C         3.38877826160517    1.29445101731938    3.44808012019584
C         3.56578593432654    1.99644398617530    2.09531786353743
N         4.75262187376223    1.44476432785992    1.46512122606655
C         4.75251800114629    1.32263616529789    0.10020828132175
N         5.86240986062965    1.26201078311606   -0.57412176543355
C         5.48445786616002    1.16010067327832   -1.98251168793307
C         4.06642628632375    0.61001358868263   -2.04150479448082
C         3.47826294385693    1.19617952096008   -0.75726129306315
C         2.88302304821950    2.60547758695618   -1.04552233747649
N         2.51402184003936    3.59521147895044   -0.01254284610222
C         3.59641925296113    4.17425683515370    0.77586839588615
C         3.65400633426717    3.54681015812902    2.19782784748186
N         4.83496388396241    4.17700970091726    2.83522329108433
N         2.60843132645762    0.27871422166941   -0.00887146655881
C         1.41003935242741   -0.31911215340801   -0.29201254208847
C         0.59544956737777   -0.01724303554648   -1.52503765711271
N         0.93609550495065   -1.11926219986035    0.60347286353220
H         2.47194120787837    1.67341255003137    3.90746669562453
H         4.21109928604439    1.50222665028304    4.13890429571897
H         3.25885551059682    0.22215949673693    3.27164620159775
H         2.70689218592977    1.77313187264634    1.45784594802903
H         5.61667923937110    1.65728619484422    1.96032733631282
H         6.22467712568765    0.52730700099931   -2.48695577796131
H         5.53251116532941    2.17495423509573   -2.38351370937245
H         4.16662999394995   -0.48200957917475   -2.04013294159504
H         3.42717756762560    0.93132813338705   -2.87370322295932
H         1.90003524142195    2.41628052861429   -1.49134327356519
H         3.56724479355482    3.07255734002141   -1.76521934660468
H         1.86805341144453    3.22332926665223    0.68178599256372
H         3.37185705577782    5.24913159646294    0.80529168777090
H         4.61924133429855    4.08111058981958    0.38908716386896
H         2.88451515842077    3.97903977991184    2.85189296245249
H         5.70082534719932    3.68609474872415    2.59929088053166
H         4.80290982376381    4.11933023515826    3.85111251827181
H         3.16594786472904   -0.11000595090643    0.74503008789582
H         1.26576254517621    0.03305761995959   -2.37903401419938
H         0.02352993389169    0.90475109105096   -1.38594264811343
H        -0.16730166948238   -0.76189162888614   -1.77427145105162
H         1.52170158114970   -1.37810574131138    1.39914266089428
