39
 energy: -52.266544627574 gnorm: 0.104252284066 xtb: 6.4.1 (79825abcba525fcdf90b791dcacef51065a7a4e7)
C         3.54167587837354    1.26193212335964    3.56647748696790
C         3.39450349437226    1.91441218490380    2.18564381508563
N         4.55214655100581    1.41044946077043    1.46733891591722
C         4.70840758429129    1.45107566796141    0.10651759463571
N         5.90918805824119    1.43270821046362   -0.39152386179552
C         5.80302385358418    1.04718052777618   -1.79754417565635
C         4.41953226600459    0.42519985379243   -1.92395862077985
C         3.55943993062153    1.11454294060029   -0.86383821286846
C         2.95905357539786    2.46573799334496   -1.35100776139264
N         2.49932168445148    3.38521204860131   -0.28987828851234
C         3.41421022807370    4.04908466809478    0.63246766790171
C         3.42930053335200    3.46629334479593    2.07437641464697
N         4.57540057975772    4.04385896494654    2.81664172081917
N         2.73899501349853    0.16384029815015   -0.10129537366093
C         1.39647484681555   -0.09243296908574   -0.17660928889108
C         0.51121364112536    0.63196000662791   -1.15976738217175
N         0.83487533923648   -0.94855116226724    0.60979048857858
H         3.42394869935692    2.04852020227180    4.31658251854923
H         4.51397059009019    0.77525441779749    3.68651259684232
H         2.70091466475186    0.57043880554554    3.67950636808020
H         2.43549813541520    1.60611789365309    1.76232293757116
H         5.41190358660393    1.69061531458497    1.93564940577907
H         6.59477354044805    0.33025376958810   -2.04647123111597
H         5.92241816579904    1.89608836252198   -2.47440455810709
H         4.33596847423640   -0.62786759058652   -1.62964021642615
H         4.09396294182626    0.54045166749198   -2.96566770485499
H         2.12280479515101    2.36210457883940   -2.05155393852099
H         3.76653590032463    2.93226395584191   -1.92946476123274
H         1.56373099168177    3.14857372326063    0.03621446135978
H         3.17465228976647    5.11524626983637    0.74454395317474
H         4.34829977941315    4.01157398872398    0.05756714379624
H         2.50856026374350    3.84750119599778    2.53660819628742
H         5.51036558456282    4.08954920392057    2.40417292709120
H         4.61988532575312    3.65546431252736    3.75661831957840
H         3.27307232061010   -0.46726625390090    0.48756926543353
H         0.56514188663192    1.71280673709930   -1.05965988726526
H        -0.50290562565903    0.22944274935562   -1.08195588207189
H         0.81716357029678    0.39366947206558   -2.18349621600420
H         1.55023828603335   -1.33317587290221    1.22893875249174
