39
 energy: -52.261479464276 gnorm: 0.123567180894 xtb: 6.4.1 (79825abcba525fcdf90b791dcacef51065a7a4e7)
C         4.04657542166929    1.75598575537463    3.77877308530620
C         3.67098985720106    2.18702449294012    2.35496388980417
N         4.67645234896849    1.55691563107986    1.51705833918580
C         4.75654959669157    1.06640541785673    0.23999658343049
N         5.83080084706427    0.55172072359155   -0.28090671421022
C         5.45050514086178    0.23633234603072   -1.65666137514959
C         3.96131340237202    0.47561590430050   -1.86145610381142
C         3.48216852530235    1.21797353892555   -0.61320399920115
C         3.14885926183410    2.69595568247847   -0.97097446562879
N         2.30658544936047    3.32841703968575    0.06505119121149
C         2.86856807718439    4.29528911648983    1.00196306922833
C         3.56213558488408    3.73752996926730    2.27744066243330
N         4.94182749276258    4.28024104693796    2.27720789504099
N         2.41197166264281    0.44566330821441    0.03228227470912
C         1.40617133536806   -0.15806916335387   -0.67311221767867
C         0.62460062713301    0.62479207592018   -1.69844530750857
N         0.92950112740754   -1.33082102498118   -0.41974377171451
H         3.38859514566118    2.13748324462119    4.56411356236359
H         5.04208649258292    2.18887786781074    3.91361649923562
H         4.12828233125385    0.66534376486419    3.81929439122081
H         2.75107805080175    1.66356793070694    2.08349992854387
H         5.48052878844276    1.30792243700244    2.09016671965722
H         5.75614358685579   -0.77906135934586   -1.93662026667660
H         6.06731133241407    0.87346872480280   -2.29435004899337
H         3.40417591477216   -0.46855044844016   -1.88800765344989
H         3.84960746641822    0.96278410600173   -2.83850528552290
H         2.61155116105008    2.59476441615507   -1.92064661644617
H         4.09493070085963    3.21141805549139   -1.17962259240727
H         1.71254488794815    2.56820637593877    0.39194518415142
H         2.06636878224109    5.00942621315073    1.23247152948657
H         3.59030093682982    4.90821453890228    0.44710718456216
H         3.07522008151169    4.16347108880723    3.16526256109559
H         5.55066184751023    3.73332827772119    1.66354282831139
H         5.29115236172423    4.40359330045978    3.22543869998666
H         2.66762413330982   -0.14649920925572    0.81604306847699
H        -0.05217317620078   -0.01223002239257   -2.26177424411803
H         1.20856452093653    0.99335719191090   -2.54677224043639
H         0.18262116748749    1.44701242438770   -1.12659189438169
H         1.40413026952698   -1.80395945635398    0.35090017183500
