39
 energy: -52.265327063937 gnorm: 0.112198714015 xtb: 6.4.1 (79825abcba525fcdf90b791dcacef51065a7a4e7)
C         3.51820546159049    1.37046475198470    3.66247731743809
C         3.74796981114250    2.03018763885126    2.29643720594316
N         4.82388788325427    1.42219127818284    1.53301171611639
C         4.73492796457566    1.28259207607732    0.17268057701749
N         5.85420714297910    1.29341604837353   -0.48864637575822
C         5.58037201043237    0.92686610795495   -1.87697307040853
C         4.10045438176112    0.61033955241413   -2.03989728382745
C         3.49591211948179    1.11169708760064   -0.72765596962253
C         2.82853988116326    2.46811388234806   -1.09950780538414
N         2.54773376899350    3.41079033666819    0.00289445432286
C         3.62925702427452    4.04096087254459    0.75233591828333
C         3.70568443029265    3.58474102924130    2.23725900405409
N         4.82848428365295    4.31650768607473    2.87123311498549
N         2.53738228946571    0.15583235031058   -0.15670928510886
C         1.23160810072232   -0.21337935931298   -0.33655654622826
C         0.50566557843494    0.22442163489412   -1.58410220889162
N         0.57459718535584   -1.02839467535980    0.41898542660820
H         2.57885284247441    1.78060854549879    4.04278873029258
H         4.44928827701425    1.44718058487862    4.23152923648218
H         3.31705061957668    0.30178983232464    3.53883027385830
H         2.83935910687021    1.84018582695733    1.72001452844138
H         5.78227321078624    1.66004760940274    1.78183231298303
H         6.13058650473002    0.01861789158451   -2.15113618276737
H         6.02219537601870    1.74956551062402   -2.44353930472975
H         4.03783316471151   -0.48444640235453   -2.04881738798950
H         3.56078167396011    0.93929672464525   -2.93710223749765
H         1.90866106098897    2.33816362831993   -1.68067279414844
H         3.57628370198855    2.93621255364838   -1.75223247710970
H         1.90530350615086    4.14573645329435   -0.28831284476892
H         3.48129924147594    5.12934107100888    0.73867223165834
H         4.62308789162037    3.89759549974968    0.30940530681105
H         2.79160374149050    4.00443569421457    2.67890723357289
H         5.80723539943290    4.17886546522947    2.60764531067548
H         4.83276407976186    4.15674479048594    3.87663989927437
H         3.01506947718782   -0.30091410580521    0.61367584360046
H         1.19924914930949    0.20230173043653   -2.42053030887174
H        -0.00384644907656    1.16744093191341   -1.36587122579738
H        -0.22402295836820   -0.56632492332994   -1.78580245697381
H         1.09749596191570   -1.41010204397001    1.20885961757930
