39
 energy: -52.258617358426 gnorm: 0.131438723210 xtb: 6.4.1 (79825abcba525fcdf90b791dcacef51065a7a4e7)
C         4.24670609259410    1.61247893437364    3.76930953688980
C         3.70856012944792    2.07708964802994    2.40966717505692
N         4.73841993456373    1.67101661651153    1.46915072156572
C         4.69948639501285    1.35253465609688    0.13687597982414
N         5.79839079306387    1.12634864579209   -0.52001468682037
C         5.56112480112487    0.58785255242853   -1.85811869538592
C         4.04202884856848    0.50008847212358   -1.89729110295233
C         3.39677222670108    1.09689978495294   -0.64578476200219
C         2.89578820484153    2.53489512293669   -0.96937463065429
N         2.28131199115311    3.22032666867921    0.18621365253154
C         2.98790067833601    4.19431388454631    1.01116897717429
C         3.49336222204868    3.61772595910204    2.36432427285862
N         4.74747361688100    4.39427768815604    2.51351260302158
N         2.45256686109005    0.15540765098765   -0.02893331756599
C         1.31960873718852   -0.26544520879229   -0.67158200243361
C         0.80667506443879    0.43702567092326   -1.90384258236134
N         0.68549695914678   -1.27455672462936   -0.17524221578129
H         3.57115118224973    1.72359774069660    4.62166874474251
H         5.17149480267722    2.11986867651674    4.05903718380751
H         4.47837183891400    0.56428094178104    3.55616662312294
H         2.73249183974723    1.61643060996607    2.23931127961828
H         5.68340672853404    1.70003535062543    1.84749926250017
H         6.04348478381162   -0.39683508454677   -1.83498172005860
H         6.07141079184353    1.28531388467385   -2.52609727314736
H         3.75643615628012   -0.55118492818966   -2.02306197528431
H         3.58350281346089    1.02495454844112   -2.74505619889608
H         2.08821612815195    2.60726884070317   -1.70653555798984
H         3.72263112825495    3.18090902119900   -1.29075212402362
H         1.50766527957948    2.74540403548243    0.64836446935430
H         2.42268089140192    5.13517217362562    1.05546260373790
H         3.95130774381344    4.40450233639280    0.52939247925989
H         2.90560471987470    3.79961267161934    3.27437845804930
H         5.50791828494845    4.04287996996247    1.92646812978940
H         5.12969222409796    4.42599156952878    3.45653352994552
H         2.77011988805934   -0.39385571006930    0.76338318206131
H         1.58370682385024    0.67529889177537   -2.62537355116394
H         0.30933031602186    1.32344701851189   -1.49959258635515
H         0.09682613500904   -0.30202466742511   -2.28897576279471
H         1.02247969071595   -1.55312176375279    0.74772530400554
