39
 energy: -52.263725841478 gnorm: 0.127788870271 xtb: 6.4.1 (79825abcba525fcdf90b791dcacef51065a7a4e7)
C         3.74207034054904    1.62349337731744    3.72332614850241
C         3.61398422126881    2.04998894207082    2.25506627671236
N         4.69470066924356    1.41333135461961    1.52240205317093
C         4.72803170196727    1.28830984768224    0.15815819459436
N         5.87980056540203    1.24132612072413   -0.44307170754401
C         5.56198958804003    1.04650724620413   -1.85652044788388
C         4.10402867655708    0.61703402211738   -1.93893569297628
C         3.43921419974014    1.17297162057313   -0.67887097611682
C         2.97228342185990    2.61808338405680   -1.02114815598199
N         2.38555984925324    3.36271730234263    0.11201445509594
C         3.30080065150869    4.18084704644116    0.90034685518182
C         3.75407840480816    3.59985245490898    2.27000332683962
N         5.11725309041580    4.05780459051197    2.63072450542014
N         2.38310081484097    0.36650499954337   -0.05223468727995
C         1.21139617222743   -0.20694094481693   -0.46693522197564
C         0.80403817813769   -0.12256640961485   -1.91675342426489
N         0.45227642734202   -0.95403680364766    0.26268246083196
H         3.04442200710663    2.16517193445310    4.36761583219373
H         4.80410927204141    1.67248968454984    3.98080099031769
H         3.47173024503566    0.57233806702948    3.86406242793382
H         2.67188891491899    1.64456399495988    1.87820521632983
H         5.56097661833133    1.15428606810492    1.99085833377295
H         6.21739517750718    0.26412389407491   -2.25793796766221
H         5.78477415043094    2.02476817301537   -2.28827511145455
H         4.00040718280966   -0.47199997232578   -2.01525615385602
H         3.62651214725961    0.93227326954946   -2.87543895665533
H         2.13768524479162    2.44531935030848   -1.70992630767474
H         3.67212373548178    3.34149376136457   -1.45839823801710
H         1.52896933061684    3.03950335597401    0.55861221039745
H         2.80925820864461    5.15178587097467    1.04972386305360
H         4.19491704476457    4.46411421059017    0.33047270514188
H         3.07839135902459    3.94131531854466    3.06598725938764
H         5.66441087456344    3.53672542972843    1.94117933996198
H         5.39639761331213    3.77766559067433    3.56880007912004
H         2.63423524128790   -0.13499735971639    0.79376915231178
H         0.95640867056932   -1.08140589740802   -2.40518918479071
H         1.33710045147652    0.62145257844304   -2.51574675682701
H        -0.27167006276467    0.06614275685769   -1.99191388099373
H         0.83562223625731   -0.99809610958534    1.20826675279159
