39
 energy: -52.264869826552 gnorm: 0.121146814789 xtb: 6.4.1 (79825abcba525fcdf90b791dcacef51065a7a4e7)
C         3.66646187269774    1.31597950919402    3.59083240029694
C         3.66536691924393    2.00975431741904    2.22234167868820
N         4.73844337553011    1.44978652979471    1.41920984240021
C         4.78095102071888    1.30744154511619    0.05691999606343
N         5.91848360900573    1.06876004153271   -0.52558075262743
C         5.63381338558900    0.81476843052136   -1.93669615255374
C         4.14690931189155    0.50893649451947   -2.04837713530385
C         3.51407641177978    1.13037456511296   -0.80252592980558
C         3.11926223530760    2.60962635199795   -1.08441584513936
N         2.40528310743440    3.33487331851977   -0.01341988553635
C         3.08118037141977    4.19706447255584    0.95004223462280
C         3.56009674866234    3.56113181413788    2.28615713080948
N         4.77839885362826    4.31648498295607    2.66466301207493
N         2.57116909745136    0.28301973871729   -0.05999476936253
C         1.35041304747597   -0.26402186707556   -0.35018212093141
C         0.67152659214953    0.16471780667997   -1.62702505830049
N         0.69630457942316   -0.90938700653468    0.55668221078477
H         2.66898651355598    1.32738453450524    4.03821465156540
H         4.33052135607048    1.75838040469822    4.33911514458061
H         4.06658035383103    0.29768770094153    3.56246092508883
H         2.73534767673664    1.76663153690305    1.70282967094154
H         5.70293165091912    1.65715704760900    1.67169667623363
H         6.29304953705206   -0.00455684351497   -2.24803200259554
H         5.81726213880517    1.72161386488145   -2.51722815303373
H         3.91345756572600   -0.56146872677914   -2.09623327013320
H         3.63843527378826    0.99050958925068   -2.89334914154782
H         2.38655561504300    2.56231738634041   -1.89787741847270
H         4.01281305013756    3.22803299699903   -1.23747413000987
H         1.49715750051425    2.99023617922843    0.29349580767759
H         2.50187169154589    5.10947788636696    1.14639108077235
H         3.97666752757686    4.58793216882710    0.45027614222896
H         2.80562389538569    3.88263240982053    3.01701167037963
H         5.51761019153262    3.94153469830513    2.06519946322654
H         5.03453565158441    4.28029577601996    3.64927947717569
H         3.06250466444517    0.05778576830800    0.79916448953069
H         1.25198968977815   -0.07950595834128   -2.51278843705705
H         0.56313430122918    1.24540058546856   -1.49706927562025
H        -0.27666494338802   -0.36342485022235   -1.76987675960878
H         1.09718336765569   -0.92593387137576    1.49585593173376
