39
 energy: -52.260522942559 gnorm: 0.121782400730 xtb: 6.4.1 (79825abcba525fcdf90b791dcacef51065a7a4e7)
C         3.83668306406993    1.55426105720112    3.80988092285405
C         3.63946796247716    2.12275516255019    2.39849430174940
N         4.59252288796152    1.47090960717462    1.51709687884166
C         4.55889766026163    1.29339675149746    0.15869299679719
N         5.68399846759956    1.19888721713799   -0.48587854588733
C         5.36385729085473    1.05583467995549   -1.90497725292851
C         3.95307476568995    0.48617345805444   -1.95045571620582
C         3.31375966617862    1.16959995435955   -0.74090523120955
C         2.91335465444807    2.63447637998241   -1.08345286240344
N         2.62418486433340    3.30074819461763    0.20311016517882
C         3.68641479833286    4.07817807099161    0.83218911658428
C         3.82576767751872    3.66608885343726    2.32541968300898
N         5.06004268834736    4.26938942135547    2.88280532498620
N         2.30901348067221    0.38500729557480   -0.01060641127014
C         1.28132591817480   -0.30917758735851   -0.58998035169027
C         0.92144079966123   -0.29572470111677   -2.05467626706562
N         0.39705811568594   -0.95299821148382    0.09582021835109
H         3.13698469757536    1.98242020322188    4.53261184528990
H         4.90469887937317    1.48609949290794    4.03641311827240
H         3.65338548610353    0.47722614806605    3.74495210402260
H         2.65318372793381    1.79055081610674    2.06559660769184
H         5.54356277142609    1.65746949722875    1.82968015215148
H         6.17960419116368    0.49040636135615   -2.37152202717372
H         5.40995149721970    2.08422481318531   -2.27011907039997
H         3.97436668448659   -0.60896546771342   -1.89778087708375
H         3.39646417559655    0.74307683649834   -2.86074219663512
H         1.94696270817030    2.73008818289153   -1.59115537641182
H         3.78686208784767    3.00778446956887   -1.63291852121544
H         1.65919284281046    3.55151105124393    0.41185046522229
H         3.30396012918077    5.10476823905584    0.75162414744439
H         4.64448808379876    4.12245566485192    0.29873244100338
H         3.06861359346635    4.18107821443862    2.93225073954506
H         5.83659618153810    3.73979423718029    2.47923218713164
H         5.11877603570898    4.10959319652921    3.88649893528604
H         2.56991268558465    0.12098045370814    0.93412478118825
H         1.65715985725205   -0.84932292060215   -2.63208937585601
H         0.79029124102173    0.71062529553627   -2.46280875590530
H        -0.03413783239173   -0.82813049456942   -2.09736133171402
H         0.62959330644115   -1.08378446081046    1.08164333767803
