39
 energy: -52.261400533448 gnorm: 0.116153973948 xtb: 6.4.1 (79825abcba525fcdf90b791dcacef51065a7a4e7)
C         3.82126711449251    1.62679856819449    3.87191518581798
C         3.62337324278415    2.05980481861622    2.41334220145589
N         4.69482113449380    1.47433880133679    1.62638177245485
C         4.70189199241867    1.34905804344390    0.26177291348445
N         5.84399341876918    1.28226708452036   -0.35580272316749
C         5.60441956302928    0.94197963538519   -1.75708940475382
C         4.15727420438112    0.50196283387095   -1.92751554428885
C         3.50976452110228    1.12033472734619   -0.68769483372629
C         2.91953556085997    2.49899813251230   -1.10535860114357
N         2.33343873757824    3.36659794741075   -0.06298497035334
C         3.12823593320836    4.17121960741056    0.85861763635160
C         3.55517104008686    3.60519609364272    2.24292904095209
N         4.95294565508289    4.08954625040326    2.34149981973848
N         2.47308120764600    0.30325341623853   -0.04263453653817
C         1.39900247670876   -0.34292742894157   -0.59264705463119
C         0.55815005675059    0.46477635806252   -1.54952439189102
N         0.85906673155582   -1.44939314631819   -0.20411135774320
H         3.21558567354178    2.27092102027709    4.51495041622344
H         4.85836768657521    1.81530390787480    4.16433399438244
H         3.64462974616232    0.57442228717300    4.11506400872343
H         2.67978420147152    1.67569610933896    2.01832647530579
H         5.50625753461383    1.18517718443753    2.16947134196981
H         6.33814761342211    0.17552627803733   -2.03459367461117
H         5.86167701312877    1.77009693083293   -2.42122782261805
H         4.09463850011595   -0.58935815353819   -2.01499429244801
H         3.84032057687675    1.00627063647164   -2.84928027569813
H         2.26835289271923    2.31608438886782   -1.96751900126121
H         3.81120675608443    3.01359493291615   -1.48535768163557
H         1.61555512488338    2.92369436617014    0.50810491976105
H         2.38326991092376    4.95500786330914    1.05188237263569
H         3.98029186064753    4.60932914399140    0.32335911812245
H         2.88410753818922    4.05272416252864    2.98867208410366
H         5.40576723655053    3.63840455877554    1.54287509158445
H         5.45836251730071    3.84298153032238    3.19011335889666
H         2.75524402227206   -0.06234733567365    0.86125475512248
H         1.17298774865004    0.59922209676541   -2.43555959682227
H         0.27745696141283    1.44834363381230   -1.16181385527949
H        -0.38273637146463   -0.05619145647971   -1.75381275032721
H         1.39225761044347   -1.95074461088453    0.50819410986283
