39
 energy: -52.267963501506 gnorm: 0.099897651388 xtb: 6.4.1 (79825abcba525fcdf90b791dcacef51065a7a4e7)
C         3.95521226445100    1.84284417273540    3.90729310587156
C         3.62791620089324    2.05043161510109    2.42274728731835
N         4.58687311025569    1.25724896195825    1.67352056905431
C         4.78095865938256    1.17721104365897    0.31933175872512
N         5.97217863881941    0.94674441120099   -0.14771903618305
C         5.90639230089641    0.62675641178699   -1.57252617274375
C         4.41659463855724    0.63718971344843   -1.88442936524912
C         3.61494979377503    1.15174225529262   -0.68801422057800
C         2.98862843178310    2.55966180083809   -0.90939644772096
N         2.05554099616131    3.04147369520916    0.12982770435088
C         2.47413719050229    3.98299304680473    1.16268224167430
C         3.65591657398231    3.56941435821873    2.08535467387908
N         4.97421439677302    4.07617486607499    1.63438929857651
N         2.60802480037552    0.19699742773627   -0.20531213978638
C         1.32195796182108   -0.00482905893595   -0.62840399566126
C         0.64427321748664    0.78875392968406   -1.71744111284507
N         0.60857624568290   -0.92738541704978   -0.07456893639867
H         3.22695195010548    2.25075950926025    4.61332429405791
H         4.97633357819343    2.13924040756554    4.16435565084543
H         3.93107399081927    0.76965464878927    4.12059931543049
H         2.59937967502850    1.71927137194095    2.26031974420510
H         5.50572738259457    1.37560877087513    2.09623507218490
H         6.17488113248028   -0.40970183425830   -1.81019036806663
H         6.32529212071954    1.33116094915236   -2.29459034969053
H         4.00560859656756   -0.35124952045609   -2.12241176289736
H         4.27467197422521    1.23778424159597   -2.79194264141051
H         2.41500333678210    2.50987725322187   -1.84175507235887
H         3.77808514713446    3.30131562642845   -1.08544861019597
H         1.69066911445605    2.18533816832739    0.54403127549204
H         1.58444907677335    4.23666767507381    1.75492703815747
H         2.76795419945759    4.87732349563428    0.59851421255285
H         3.56882794392032    4.07882101487483    3.05471565472068
H         5.37487915171089    3.83638332594432    0.72425445594370
H         5.66452346687655    3.85920353937896    2.35047737562152
H         2.80898090373289   -0.59722050936536    0.39396251868069
H         1.17465018852550    0.78075314058413   -2.66601671568727
H         0.42810388550815    1.81514105584021   -1.40709784593189
H        -0.27672036614847    0.22111370930398   -1.88466511937138
H         1.06692919410558   -1.44447947279728    0.67746244275290
