39
 energy: -52.269300887721 gnorm: 0.102247003246 xtb: 6.4.1 (79825abcba525fcdf90b791dcacef51065a7a4e7)
C         3.44658635457698    1.53393941788166    3.67206650754021
C         3.58761504105173    2.12905907520411    2.26492932163546
N         4.70208509401564    1.51211849094302    1.56677562053942
C         4.65462042280513    1.29541915017130    0.21448456050459
N         5.75042010422723    1.28960000578819   -0.48511930274070
C         5.52073841794920    0.77761891959347   -1.83490344538122
C         4.08589858367368    0.26986441090258   -1.81730953170625
C         3.41835504926901    1.01882457379107   -0.66307719528504
C         2.98906647593304    2.43239745610086   -1.15404463400070
N         2.74482584063745    3.44901009195419   -0.11019265052357
C         3.77900388599375    4.06801907367959    0.71186185643279
C         3.82085835594065    3.66689091019639    2.21396660613194
N         5.08675865054039    4.17891597512089    2.79138493057671
N         2.43336175545338    0.15617304684622    0.00329917957513
C         1.21125812492974   -0.24404368330572   -0.46574009369613
C         0.61799670174668    0.32249018743008   -1.73148598671632
N         0.51178107129905   -1.09556243926190    0.20687021897374
H         2.54044393037337    1.85374955740162    4.19347367159276
H         4.31842267311326    1.85782455266457    4.24793148740589
H         3.41414021281336    0.44279580670301    3.59351194732871
H         2.62314854996279    1.90409377988112    1.80326687957332
H         5.61678107540574    1.48541260687728    2.01355052277684
H         6.31672972271001    0.08277613402195   -2.12885507758173
H         5.58119771612433    1.54521576876318   -2.60961580368833
H         4.04047713048057   -0.78627972493644   -1.52566981289136
H         3.53400961268905    0.28858319848797   -2.76573156175658
H         2.12469604111500    2.45588944522936   -1.82719300133657
H         3.90431288196888    2.88051280325219   -1.56123419216135
H         1.84669367617556    3.43272771184306    0.37017972604286
H         3.68754007839219    5.16265759196143    0.71897150778793
H         4.75596334110410    3.84625125326290    0.26374333500321
H         2.95997785942950    4.13655438655354    2.70898304644769
H         4.93850592901659    4.52112710995612    3.74390282287592
H         5.46577658254698    4.91291365342782    2.19642432635278
H         2.58652853829416   -0.13606394603789    0.96321223601430
H        -0.20003780421099   -0.33164154484964   -2.02146985684828
H         1.23396553593455    0.43582274037746   -2.62828628560965
H         0.14789062074292    1.28756919445015   -1.51693704788050
H         0.91050005623592   -1.36568321420422    1.10747158492202
