39
 energy: -52.265488489919 gnorm: 0.121391884778 xtb: 6.4.1 (79825abcba525fcdf90b791dcacef51065a7a4e7)
C         4.05237896615808    1.84675623661494    3.99009920817879
C         3.73848270923290    2.11667182936230    2.51270072678955
N         4.60436225340613    1.24463967568700    1.73817486605653
C         4.63042940364778    1.23733596742814    0.36807640822229
N         5.79275109299928    1.21288014064085   -0.21387425611594
C         5.53589683462745    0.95415019200204   -1.62945903069244
C         4.05598783133342    0.67185774431005   -1.84641493071067
C         3.39685101655155    1.14848897010080   -0.55135920688934
C         2.82856364892248    2.58545502761428   -0.74031431047117
N         2.11972529201638    3.24584193519761    0.37513135152281
C         2.85380784805183    4.19035119959933    1.21029302373405
C         3.90883558190341    3.63328265158187    2.20807325457611
N         5.19670096574861    4.04595691546633    1.60046495537220
N         2.39662170284694    0.17282828400294   -0.09741593496044
C         1.32155146920887   -0.27557298886460   -0.81635186018165
C         0.80758046723285    0.29578960752467   -2.11420047297692
N         0.66667491567256   -1.31890063533818   -0.42987921223569
H         3.30098743275103    2.23349159822792    4.68370181294865
H         5.04434616428144    2.26287424399745    4.18876350698556
H         4.16156693072654    0.77468266922003    4.18129075229119
H         2.69874606139605    1.84347800975137    2.31712453866037
H         5.51906613286788    0.98897202495315    2.10551752749452
H         6.19540714020908    0.11217977241727   -1.87225151934966
H         5.88023701010596    1.85367841754956   -2.14454961191117
H         3.91663548913756   -0.35608587906606   -2.20204126669751
H         3.74263712901609    1.39054545666798   -2.61435731041332
H         2.16973452560863    2.49079191720762   -1.61083136645419
H         3.62464894919359    3.30725407276045   -0.96289241036106
H         1.65361215555402    2.57967923025092    0.98883316969651
H         2.05930329155079    4.71420048109476    1.75892231725457
H         3.28966911386558    5.00810295828432    0.62228964682365
H         3.70807455482980    4.18151698758829    3.13859698277593
H         5.24962236955857    3.70520514159165    0.63741499886200
H         6.02044191242510    3.64394129391921    2.04343176695529
H         2.58868579568051   -0.25868370517594    0.80102960917351
H         1.53234380203722   -0.15654468965267   -2.78596771234085
H         0.79538356742069    1.38926426741950   -2.08818003203217
H        -0.17248610881023   -0.17749635677573   -2.23200698031887
H         0.95804498531280   -1.91752629831390    0.34457264539491
