39
 energy: -52.267697223318 gnorm: 0.119441062575 xtb: 6.4.1 (79825abcba525fcdf90b791dcacef51065a7a4e7)
C         3.49968466085210    1.50531132793002    3.64061599667688
C         3.52784933981975    2.09859860795373    2.22593988113041
N         4.65858301595472    1.46749071296273    1.56774390305210
C         4.73440394705443    1.35722890919700    0.20392715269431
N         5.88413723141983    1.13286810674531   -0.36001607492476
C         5.64935000938852    0.94391016069958   -1.79038854237324
C         4.17607650462498    0.61233389594245   -1.98120754576144
C         3.51030800687983    1.12247142260104   -0.70241125098356
C         2.89445368565724    2.51342138285108   -1.03333062496559
N         2.38680001600863    3.49624257553125   -0.05397781397186
C         3.33060490893908    4.21857146569903    0.79215648203126
C         3.69066305176237    3.64595483781528    2.19267160061651
N         5.10096113004073    3.97921454046083    2.50585276853648
N         2.59795580398142    0.19401062780123   -0.02122778345772
C         1.31607286508052   -0.13048380543865   -0.37504700636527
C         0.61923913386549    0.17665242832468   -1.67701570485808
N         0.69194982413125   -0.91709087404828    0.43641878162554
H         2.60933535863966    1.76533488065432    4.21932483601571
H         4.40758824226179    1.69728249393569    4.21982129533791
H         3.40152232730400    0.43563843401841    3.43089711234353
H         2.54913152002875    1.78371271034791    1.85594595974313
H         5.56050450865421    1.50259609347650    2.03922560106905
H         6.28376254344613    0.16792336783947   -2.23556429484740
H         5.85797486600791    1.87874736966535   -2.31535954105419
H         4.01541820707844   -0.46846799376879   -2.07401618413932
H         3.79388455683319    1.02498409460791   -2.92359032226990
H         1.99867273496966    2.26206317148270   -1.61230592282406
H         3.60636586590720    3.09792719194958   -1.62983768634932
H         1.47117341022845    3.22540278682099    0.30089940731900
H         2.91496209652209    5.19202571503081    1.08588685871151
H         4.28933501890520    4.41009305946203    0.29356145249811
H         3.01491677542280    4.06068873050929    2.95300248344266
H         5.73762050127858    3.53790040051350    1.83780760525781
H         5.41257539567749    3.50414473103798    3.35059564680784
H         3.11777074135695   -0.53307275752408    0.45985203022744
H         1.33605383493201    0.02030364446255   -2.47882064603598
H         0.21447546298145    1.19231020012703   -1.64357446700195
H        -0.20277984057079   -0.54622079226628   -1.68916396571324
H         1.18857215593539   -1.19956316120147    1.28294140301483
