39
 energy: -52.270576967708 gnorm: 0.109795243029 xtb: 6.4.1 (79825abcba525fcdf90b791dcacef51065a7a4e7)
C         3.89874973286781    1.62935647075559    3.81508527440333
C         3.63668662881253    2.04861202298901    2.36262554793015
N         4.67645189737298    1.38120603050006    1.59873081112418
C         4.76354170727126    1.24793880579626    0.23764381958454
N         5.94007660626927    1.07831901004670   -0.28890257049213
C         5.71425332250815    0.84760314803337   -1.71458471463087
C         4.22713421050285    0.55382586016218   -1.85264695000568
C         3.52066571009528    1.22361555479135   -0.67320132339443
C         3.01903371617953    2.66974045722802   -0.95712753320157
N         2.21611080935006    3.11555761581922    0.20017258843730
C         2.60892912259009    4.07383309481290    1.22772883103502
C         3.69552427966224    3.59841161289113    2.23383997416018
N         5.03692734631753    4.14805181458381    1.92300466756224
N         2.48670588217589    0.37160275640359   -0.07034298242764
C         1.35068346389253   -0.12701320672523   -0.64874054041870
C         0.80785063193593    0.33853542013679   -1.97675763559761
N         0.53129573405141   -0.88533119399794   -0.00042383682152
H         3.18851503734850    2.07189561732521    4.51862193070752
H         4.89320801998129    1.97605527083645    4.11084408896060
H         3.91529344512842    0.53646358598331    3.87102628667165
H         2.69547020227708    1.59725175381262    2.03963523600540
H         5.50962937325194    1.03961466523158    2.07425198051085
H         6.24890352977906   -0.04455555972004   -2.06246143850436
H         6.01930552804816    1.74419620711294   -2.25873866615136
H         4.16446648734095   -0.53580090517380   -1.74614093517042
H         3.72713742818336    0.77467049561530   -2.80431235067111
H         2.41686115894800    2.57741976048484   -1.86799632609248
H         3.89466073870283    3.31724643254309   -1.09240501499134
H         1.58930842540726    2.33422772011360    0.38539269560948
H         1.72753537893997    4.28573003670010    1.84812742158568
H         2.86797088538898    4.99377218073860    0.68823797011064
H         3.46566127029934    3.98109574868369    3.23756111449772
H         5.53695802467492    3.77496834129949    1.11235326110213
H         5.69339865844190    3.96789973212380    2.67995641317806
H         2.76734555609013   -0.21940682020014    0.70570125449905
H         1.52930576726819   -0.01022139123759   -2.71094466828434
H         0.67619847410313    1.42349015439583   -2.02207417212231
H        -0.16609846783067   -0.14182832403856   -2.11489629557778
H         0.84956303616860   -1.05211083521051    0.95556536798255
