39
 energy: -52.265735588197 gnorm: 0.116855300138 xtb: 6.4.1 (79825abcba525fcdf90b791dcacef51065a7a4e7)
C         3.81812176629268    1.60828072098235    3.90729758925249
C         3.62019036205601    2.01338802192532    2.44073603805849
N         4.65320671573488    1.25798478835792    1.75347995208146
C         4.77952951819942    1.08619154734214    0.39980634822783
N         5.90750306351559    0.83516628081696   -0.19594388681130
C         5.66527473782174    0.80062621731421   -1.63709896621271
C         4.15659706436158    0.68407784060764   -1.80201620402285
C         3.57744744705995    1.31769236173693   -0.53634391288605
C         3.00193656726750    2.72001686673208   -0.89102573765168
N         2.11077115944207    3.23823236405222    0.16730248127389
C         2.69918501066962    4.11501101295469    1.17402900951613
C         3.79835299492372    3.52153706491246    2.10063177275671
N         5.09053863477676    3.94591947863467    1.51051231693573
N         2.47176989124983    0.50491964622479   -0.01163960165824
C         1.40383768799805   -0.06150515271580   -0.65381740821082
C         0.81412580847670    0.34269735026220   -1.98193361675286
N         0.67520126091952   -0.95698978267199   -0.07593054761052
H         3.26627695578076    2.28659318303203    4.56349691639534
H         4.86452853478349    1.72325012962681    4.20467870686636
H         3.50364983527930    0.57288615962078    4.07125934178205
H         2.67644456237444    1.59794659586177    2.07922602786891
H         5.52259517908359    1.46592784133922    2.24124336654423
H         6.24200407805269   -0.04520603563481   -2.03050370483010
H         6.00472119636994    1.73851036241678   -2.08228310813194
H         3.93748967776717   -0.38248643426530   -1.93236137396729
H         3.74272715785502    1.17293113740140   -2.69317855521443
H         2.47941919875042    2.54412206733210   -1.83804922063979
H         3.80001265506591    3.44233963763774   -1.10459315360308
H         1.31960179737933    2.65534880437203    0.43555966551865
H         1.80127717871080    4.44821950472667    1.71197258002663
H         3.12631179652662    4.95982629662471    0.61878960358934
H         3.70803944806350    4.11909901207647    3.01796675318114
H         5.40801168357541    3.45306913408175    0.67224800115465
H         5.83446116391262    3.87375561847518    2.20171196324671
H         2.58395767804557   -0.11413108053409    0.78490651543343
H         1.52581034404598    0.17681561575265   -2.78638858469945
H         0.56507975485307    1.39844717058949   -1.84093346261229
H        -0.14380772678817   -0.15059166267835   -2.17542200543959
H         1.09208630852387   -1.33012972217045    0.77846884867181
