39
 energy: -52.259488589686 gnorm: 0.118125678783 xtb: 6.4.1 (79825abcba525fcdf90b791dcacef51065a7a4e7)
C         3.84708063066809    1.60946144396548    3.71625835267514
C         3.77298185467394    2.10051614009391    2.26454687919690
N         4.88017481023977    1.84721981469509    1.35898489847112
C         4.77503869906935    1.16771855442107    0.17360433881803
N         5.86155340285181    1.12385398004720   -0.53900922215550
C         5.51114180548655    0.49252031324544   -1.81000295282084
C         4.00124262012841    0.50325441104098   -2.00230159602314
C         3.49247434482227    1.06699535485840   -0.67483823986684
C         3.06503821200275    2.54736627306853   -0.89693350361240
N         2.24605192433249    3.29174399063963    0.08181313184110
C         3.02739614132306    4.15856195505680    0.95736884012247
C         3.58892022643766    3.64506107858355    2.31382813791019
N         4.83000164292369    4.34869461107056    2.71719139006605
N         2.49623949081960    0.22773116228009    0.00456493657562
C         1.32552547497066   -0.22023319573994   -0.54540342982364
C         0.75363470698546    0.43268349554355   -1.77896460730486
N         0.57472538855013   -1.15343079810846   -0.06353368900247
H         2.84431536535911    1.71873751058253    4.13787264618820
H         4.56193601197360    1.99472543744588    4.44917993963980
H         4.04061569904005    0.53431103728036    3.78269424739407
H         2.92548521753873    1.69642503138283    1.70562198859746
H         5.84887586510277    1.86932640935548    1.67222494851251
H         5.83622981865977   -0.55392663793417   -1.76436541739576
H         6.11365669390708    0.93252937541763   -2.60775436947524
H         3.55874195934259   -0.48391792095280   -2.18185997637294
H         3.86001315111900    1.12080991118527   -2.89846877666247
H         2.57576435288932    2.73588093165272   -1.85916537205715
H         4.01038739691997    3.10251877491931   -0.94599774639632
H         1.66198655630072    2.66306387168425    0.63071483418936
H         2.37403459880358    4.99802194827704    1.23136752156751
H         3.85539180985456    4.58931012962331    0.38003000003508
H         2.89975381239494    3.94288816086322    3.11575641903251
H         5.52917092134560    4.13782896487321    2.00089838774407
H         5.22600103407799    3.90237661260999    3.54203684937171
H         2.86810809063952   -0.36683692048872    0.73838926861993
H         1.26915613646483    0.01966766657744   -2.64199126263449
H         0.88022649966622    1.51679455155357   -1.70692019063510
H        -0.25700951954496    0.01981400008609   -1.69806033448443
H         0.97158523274313   -1.56322476704031    0.78357672448637
