39
 energy: -52.266780376192 gnorm: 0.120022362778 xtb: 6.4.1 (79825abcba525fcdf90b791dcacef51065a7a4e7)
C         3.69417606465729    1.35450560499032    3.64132083569359
C         3.58272417859551    1.98141599822506    2.24537907479826
N         4.71705705491469    1.42183031098680    1.53107482349572
C         4.74051603280740    1.29051197815131    0.16721713308997
N         5.88786900084564    1.29385289457443   -0.44419629396356
C         5.68756116852176    0.88266375660260   -1.83257513699772
C         4.23159503211285    0.44501441905051   -1.90683956295029
C         3.50211694311022    1.09082761182872   -0.72802871416011
C         3.10596093899736    2.53331764448577   -1.15908431339639
N         2.41245983002382    3.36147546538345   -0.15111975804122
C         3.16903794913042    4.11641703993520    0.84191736873809
C         3.52272483204355    3.53650691531057    2.24105428504757
N         4.75377677349000    4.31045678126134    2.53018723659352
N         2.51130903080759    0.23036799263338   -0.06746392821908
C         1.23088264075951   -0.17124634715669   -0.33750601620263
C         0.52276803471465    0.67970071604324   -1.36195475235541
N         0.79719330784671   -1.27027008398414    0.18289512659241
H         2.87040984853532    1.70340928595278    4.26974226584790
H         4.62667004012231    1.77606605870469    4.02779514719491
H         3.79895476554577    0.27412726735057    3.50124219745751
H         2.67875235398180    1.51057083417305    1.85158092956742
H         5.65397262362320    1.73897763871660    1.77314209249841
H         6.38126111818072    0.05454873012098   -2.02184241708151
H         5.79341793953470    1.79244887833915   -2.42765905237521
H         4.07109529130806   -0.63535811885108   -1.80889938524055
H         3.77659882954992    0.75949673859496   -2.85474014147080
H         2.37079793407771    2.48229470784282   -1.97010149911868
H         4.05298274375292    3.01198966391581   -1.43892261701855
H         1.75063110542624    2.73914520943292    0.30969682233320
H         2.61944046664496    5.03083109705528    1.10352623977072
H         4.02161439683417    4.38485620409352    0.20513265526556
H         2.72261307878249    3.77042809179457    2.95648586901012
H         5.58953981481656    4.01089380645828    2.02211260943013
H         4.94316886176042    4.22921404436891    3.52714037465577
H         3.04538301573388   -0.38102802940844    0.54184346466619
H         1.11726246825936    0.64120928471738   -2.27094001095952
H         0.34127254360239    1.68851550428914   -0.98003229215992
H        -0.41452674176070    0.15827991198166   -1.58106046835527
H         1.48627016307035   -1.73769947578756    0.77425604173142
