39
 energy: -52.267437548556 gnorm: 0.119361764408 xtb: 6.4.1 (79825abcba525fcdf90b791dcacef51065a7a4e7)
C         4.42083038958744    1.73018995233185    3.64163773911636
C         3.84282402541157    2.12192490068613    2.27542255776327
N         4.90409843328684    1.80648280051474    1.33506589487183
C         4.71862789231204    1.20935943605654    0.11566154899657
N         5.78075200142766    0.70805661134736   -0.44187249397885
C         5.39767686379425    0.11196214164101   -1.72043432698655
C         3.95119737506429    0.48923055711382   -2.00723593279090
C         3.45203272636513    1.22362459238690   -0.76212227201460
C         3.01271149863889    2.67456167978462   -1.11610589639762
N         2.44734130391191    3.57465989769338   -0.08996680309627
C         3.43125792127764    4.14394577135208    0.82452302948958
C         3.31215508754838    3.58490034968336    2.27098664948208
N         4.04140584713205    4.51888114320121    3.16203004921352
N         2.48371074621857    0.40794832658137   -0.01682924017769
C         1.35663465324256   -0.18238726983566   -0.52171727125176
C         0.63923512884594    0.41333316593096   -1.70724985289770
N         0.77695926876436   -1.24663458509525   -0.07662057274774
H         3.71534147129403    1.96054516107756    4.44442034439875
H         5.33860301240392    2.29036429315754    3.84293041094947
H         4.68931212709529    0.66972497056015    3.60773303159954
H         2.99420294901263    1.43971191668488    2.18396269291191
H         5.85586487320881    1.60865288241501    1.63837056389034
H         5.71421358447143   -0.93348464592561   -1.81872843566592
H         6.05311406213813    0.55028991720871   -2.47628505811645
H         3.30513374260517   -0.39299339948765   -2.08993986151684
H         3.78212616425772    1.17073326093445   -2.85068431373952
H         2.20362934201910    2.51035275227143   -1.83668785079378
H         3.90321639853245    3.11708665499800   -1.58028187669043
H         1.91160267601181    2.98529631590984    0.54509132100284
H         3.23306705105711    5.21160102612867    0.99030088588822
H         4.42131423025808    3.87024198811524    0.43810913450259
H         2.28042382925581    3.63462136936900    2.64488330692622
H         5.03234464769676    4.62784491079131    2.93280340655486
H         4.01266776606216    4.08248510878476    4.08133300719845
H         2.91615194733197   -0.18011745105237    0.68848548448554
H         0.17571491496821    1.36686175347174   -1.46831123324925
H        -0.21040611861637   -0.22613763811150   -1.96356898829339
H         1.31749014620625    0.59855572413460   -2.54633935799563
H         1.27560396515326   -1.77805116337791    0.63890354733249
