39
 energy: -52.261857694600 gnorm: 0.115363400378 xtb: 6.4.1 (79825abcba525fcdf90b791dcacef51065a7a4e7)
C         3.61343816082856    1.60738125618514    3.79456345127186
C         3.64630451548485    2.07836942666099    2.33470678400544
N         4.61451995215446    1.25683064237043    1.62922067668095
C         4.68822017920261    1.29307418475929    0.26131816640790
N         5.77260722669093    1.12900944562400   -0.43685361593012
C         5.46888345065327    0.96894064466872   -1.85774255666451
C         3.98608588895249    0.62920257459320   -1.91045845426010
C         3.41670041617238    1.17910848865846   -0.60194340704380
C         2.71158975860281    2.52316671438167   -0.94814046511091
N         2.39276130343615    3.51638105011306    0.09811732976598
C         3.48975156639162    4.17934417075227    0.79494027154400
C         3.85982672523458    3.61362075200823    2.19564568026960
N         5.16620146994505    4.19575743223103    2.58626958705428
N         2.47320909053230    0.25833286799475    0.04646485917707
C         1.34254507214760   -0.28139215748730   -0.50490100471973
C         1.02521320512241   -0.11210774096693   -1.96971351000552
N         0.45380003450162   -0.94605702434023    0.15472755301695
H         2.61105729254540    1.62216833693012    4.23074229337188
H         4.29178655867047    2.12681520175248    4.47768309215900
H         3.89534707945701    0.56821161969325    3.59842120180989
H         2.65400590415199    1.91225484210879    1.90845965876578
H         5.58271950430867    1.33704331590958    1.93441786111987
H         6.11547157949392    0.20231627242186   -2.30161988063503
H         5.66584410000362    1.90622524349062   -2.38285546856605
H         3.76735617486924   -0.43524926036757   -2.05762114395381
H         3.61225628943091    1.21382787137420   -2.76069422695202
H         1.84400406410743    2.34678575424685   -1.59389712266856
H         3.46989231312379    3.01427188294152   -1.57110083420084
H         1.64739268513359    3.25957115695409    0.74320524197800
H         3.28162156024279    5.24532062106091    0.95933541139752
H         4.24095872720862    4.22785934393966   -0.00366790760939
H         3.17771043643925    4.09413142880088    2.91018548731190
H         5.97014579284441    3.95462472237597    2.00154212771714
H         5.36018308544109    3.97634494308074    3.56126425080442
H         2.64221197469944   -0.19193639514783    0.94032793996607
H         1.82869524830123   -0.40541305841678   -2.64019692689770
H         0.62081332650831    0.82041308339096   -2.37391432167049
H         0.30901232004792   -0.87278449838372   -2.29657070268863
H         0.65624436590094   -0.95563899036938    1.15570175906259
