39
 energy: -52.263911160830 gnorm: 0.105931821054 xtb: 6.4.1 (79825abcba525fcdf90b791dcacef51065a7a4e7)
C         4.06147427538139    1.53329571282947    3.67357792163365
C         3.63434055917796    2.00143887676015    2.27626252238890
N         4.73911101144975    1.64865034636486    1.40156242614966
C         4.79673086887357    1.22471253740884    0.09969480935488
N         5.91520202379733    0.93986742682106   -0.49875477077193
C         5.67465210895861    0.56331821915482   -1.89056724817691
C         4.16522140452625    0.53409463540354   -2.08461483307624
C         3.56420757079066    1.15489691661739   -0.82279278947818
C         3.11032586960679    2.61862426787083   -1.09668991757947
N         2.33300251383558    3.31684224443955   -0.05216047288300
C         3.12344668939061    4.13676287278612    0.85964988871707
C         3.40092100716246    3.54007049285088    2.26888389224115
N         4.44939014166740    4.27850152151822    3.01287127744291
N         2.59758130068999    0.26648838875627   -0.16339847810464
C         1.32702051490296   -0.16062657425289   -0.44080908292283
C         0.51664146271653    0.50036166735211   -1.52773720789658
N         0.69441372662633   -1.04927614694649    0.24974689367640
H         3.35026607600102    1.70380965018000    4.48619464743522
H         5.04264184360038    1.97476806923736    3.87114558943032
H         4.27401277461971    0.46600366317083    3.55724641156507
H         2.76972022235148    1.46401729915085    1.87934071205691
H         5.63849419948715    1.99379902920471    1.73167154483464
H         6.21053630545667   -0.35649473503598   -2.15436352000046
H         6.11700733712990    1.30548488626435   -2.55881119966284
H         3.82915420808809   -0.50578426695904   -2.17554322256550
H         3.92908959585386    1.13695043900915   -2.97075411487591
H         2.54759049765736    2.67383050106909   -2.03535813822053
H         4.02290899684219    3.12172345084204   -1.44073921970446
H         1.58611153695669    2.77124310099605    0.37461764942364
H         2.59316347025762    5.08608916339802    1.01530643986159
H         4.06057512374933    4.42917208277111    0.36900938478626
H         2.51803862323441    3.59723548379528    2.92002991843845
H         5.30546841846110    4.28340896481826    2.45297524605758
H         4.41224423530741    3.68091387434688    3.83621476159540
H         2.96645438097293   -0.29801294738338    0.59526251189101
H         1.12879078925998    0.45682507800516   -2.42469717998218
H         0.32366228681983    1.54063955320653   -1.25007983723059
H        -0.36935423235220   -0.14256428791034   -1.51959380105816
H         1.11418043817645   -1.28838570599798    1.14955098727061
