39
 energy: -52.263076610787 gnorm: 0.126326139531 xtb: 6.4.1 (79825abcba525fcdf90b791dcacef51065a7a4e7)
C         3.95618463589551    1.60693278990945    3.82966908005149
C         3.69224977776947    2.12159021494573    2.40855765882324
N         4.68143847861222    1.54115824203650    1.51710817354314
C         4.65803804854418    1.28305084394361    0.17147241893920
N         5.73929622214543    1.08472268609555   -0.52264793484559
C         5.50646796119335    0.70579899079835   -1.91512894828933
C         4.03321298824336    0.32536525081563   -1.87414737302409
C         3.41561407659720    1.12574696206675   -0.72664195714108
C         2.99760465631742    2.56601169461211   -1.14429209710924
N         2.46985835354522    3.40682662327458   -0.05008196538853
C         3.47610423836879    4.02710725462975    0.80501517965303
C         3.69494713038119    3.67431797749815    2.30388868529140
N         4.88425719098786    4.37862070603925    2.84015762968486
N         2.36370657865096    0.36910444861999   -0.03424058166794
C         1.20616277565912   -0.14754707286705   -0.55083725152484
C         0.56012352841512    0.36756454635104   -1.81271115120413
N         0.60811402697581   -1.17359712250556   -0.04456067717467
H         2.99113843980775    1.74873103969734    4.32344751866565
H         4.67394289817651    2.28795501576071    4.29620142027508
H         4.27165649609118    0.55894594667680    3.83403141896699
H         2.79151154013079    1.64335846482862    2.01625392012289
H         5.63020044733087    1.33187637160322    1.82213535973380
H         6.19230779319259   -0.10944288614757   -2.17555288085536
H         5.85146189161725    1.57156995492205   -2.48474224729774
H         4.03888880003256   -0.75043644640449   -1.66160147677613
H         3.51182494403818    0.48559007567173   -2.82647015940054
H         2.20946416148643    2.55183699573989   -1.90550855660785
H         3.85275173408588    2.96743395813601   -1.70274560655046
H         1.99592169250226    2.76027703415332    0.57842563525505
H         3.25363139132269    5.10227906855912    0.77094076415698
H         4.45118231082638    4.00143349213838    0.30201958851716
H         2.77956918090166    3.96047040633862    2.83955675538842
H         5.75271438632681    3.85148260093142    2.72063699879180
H         4.74334284712500    4.58567087323638    3.82689907469077
H         2.59653060514585    0.03582276849376    0.89581958006868
H        -0.08834997426581   -0.43493501084059   -2.15423128688964
H         1.34484444476091    0.47970156464472   -2.56646909297398
H         0.04973750902479    1.30050528905818   -1.55283396950721
H         0.94885403017905   -1.58295896852475    0.82684279424918
