39
 energy: -52.265876007184 gnorm: 0.113295903188 xtb: 6.4.1 (79825abcba525fcdf90b791dcacef51065a7a4e7)
C         3.83639392174282    1.50817457330301    3.76315854153413
C         3.62260744773643    1.93343428810077    2.30454924639348
N         4.75716906723575    1.48962274449941    1.51342408920866
C         4.80077038238528    1.19545436505752    0.17571466176399
N         5.94934517817228    0.98491224340797   -0.39586588993665
C         5.83415923539267    0.83439737266811   -1.84530475209647
C         4.33066765887284    0.68607735018228   -2.03078731874911
C         3.58671030230758    1.13255373844852   -0.77142467454343
C         2.96810770625393    2.54785474374900   -0.96579518180841
N         2.04472153329850    3.16397158252998    0.00916108084945
C         2.70392694308619    4.00819545469031    0.99971862294995
C         3.51362976084604    3.48354161333605    2.21959319197443
N         4.85904151872644    4.10592459435409    2.19526684678910
N         2.67625834044104    0.12105829813245   -0.21789856807356
C         1.32116812602335   -0.02659734472674   -0.34294616747810
C         0.62353809240605    0.66892816831033   -1.48513224524814
N         0.64090543239449   -0.84457497507753    0.38843078558865
H         3.05385299678542    1.83711840586404    4.45211696160506
H         4.78691067748704    1.97853032042923    4.03130773635202
H         3.98392058194302    0.42379625840572    3.74983535395270
H         2.71883229270645    1.42807029438192    1.95564394833447
H         5.71360209124839    1.65972333666374    1.81886054102366
H         6.39846810472041   -0.05808388681922   -2.14169793456087
H         6.25882647246650    1.66087171651680   -2.41944531124484
H         4.20849926968666   -0.36969742970691   -2.30092017796485
H         3.90176451293977    1.16961545190730   -2.91773104647032
H         2.54608002596386    2.50016787408211   -1.97596123607431
H         3.81927918648233    3.23100644479511   -1.08023968254221
H         1.32158545121584    2.57638372194547    0.42083915037369
H         1.89422331208151    4.58920368277347    1.46173499747285
H         3.36339937568897    4.69132435705570    0.44938057487535
H         2.96111039416053    3.91897709113677    3.06331031293553
H         5.18852917970484    3.98858916154905    1.23399272168671
H         5.46780560718133    3.73257471230734    2.92080213518389
H         3.16757957659583   -0.43693992342971    0.47314198438143
H         1.37444732339274    0.67977899864602   -2.27073839102636
H         0.32418964033295    1.63671876794021   -1.07247678981779
H        -0.22550737536248    0.02379571614963   -1.73279004367715
H         1.14796859028743   -1.41172468918368    1.06979195201265
