39
 energy: -52.266667170587 gnorm: 0.111873652306 xtb: 6.4.1 (79825abcba525fcdf90b791dcacef51065a7a4e7)
C         3.61766268231836    1.34387095250480    3.58414348595490
C         3.64206681013077    2.02764728232776    2.21084602908833
N         4.79296760124198    1.65591141267158    1.40628555300545
C         4.79351456017618    1.20769162691879    0.11129469317606
N         5.95145760682069    0.94952351995645   -0.42046981677935
C         5.77567602957144    0.51068957525917   -1.80369833964140
C         4.27643555689093    0.49363966891677   -2.06614230621803
C         3.58584560862413    1.08982813208582   -0.83876591822312
C         3.03545222986701    2.48935650055060   -1.24115062726325
N         2.44639492159562    3.32160575041903   -0.17196665513419
C         3.13430188327680    4.17558158300419    0.79031149670988
C         3.45363026132125    3.57227922380745    2.18781996141704
N         4.63054096398691    4.28471790716478    2.74044773460216
N         2.65280466530511    0.22497755919348   -0.10398363101222
C         1.31444966831131   -0.04132049086344   -0.21168602365848
C         0.56059955477198    0.72569210603309   -1.26924647177130
N         0.67517426553360   -0.82935857900816    0.58648682802156
H         2.95862820936079    1.89437433900221    4.26079526610920
H         4.58951498049578    1.27092448844325    4.08093573529838
H         3.31994396382916    0.32349254531450    3.32335732790659
H         2.71626875035879    1.68341716588262    1.74357653345847
H         5.71720583868416    1.73901433791336    1.82565095333593
H         6.20481822572475   -0.49126787418959   -1.92508393574223
H         6.26691780774090    1.14955912805779   -2.54096809736354
H         3.90198533595612   -0.52834026450063   -2.19993807714882
H         4.08746918595655    0.91731010424609   -3.06074335214848
H         2.32775023986644    2.56390780552895   -2.07446739681398
H         3.95009502282628    3.00184676630565   -1.56529406660767
H         1.73499886743102    2.76797003168531    0.30244589808141
H         2.35765522660971    4.94406046757436    0.90393294925633
H         3.97450588417397    4.60137500956955    0.22710803196286
H         2.58975568125695    3.82041191078667    2.81939826941391
H         5.40458162243016    4.06087965153044    2.11026112810591
H         4.95213984679399    3.89088796010476    3.62240999830986
H         3.16926559863722   -0.34379161212694    0.55939058010932
H        -0.46579229614771    0.39962441117467   -1.12309910349355
H         0.90753079446039    0.46982668888464   -2.27457440803516
H         0.49589801695611    1.81414070707433   -1.17176922144317
H         1.29321777036946   -1.42124046767401    1.14391210444715
