39
 energy: -52.267833912532 gnorm: 0.104059653463 xtb: 6.4.1 (79825abcba525fcdf90b791dcacef51065a7a4e7)
C         3.67629258247592    1.28109594133596    3.52333788516261
C         3.66902330234241    2.01028371167208    2.17340311025381
N         4.86369269923062    1.80357750712465    1.37333102521996
C         4.85771655930624    1.21803375172926    0.13437767190018
N         5.98147711429116    1.06364965713544   -0.50090504672103
C         5.66750053727363    0.74212770140442   -1.89188954981828
C         4.19909696119849    0.34129981104761   -1.88770879430089
C         3.58371983627613    1.12530910810345   -0.72777414607903
C         3.07285816324578    2.54916229829995   -1.09545394280679
N         2.38052874522856    3.31208872497614   -0.03648985110795
C         3.16916578279653    4.12284723138387    0.88502641727454
C         3.48020179338547    3.55007380476278    2.29717424095716
N         4.59305531947879    4.37248078439263    2.82942317670545
N         2.55438953708092    0.33341319364565   -0.04088483886596
C         1.29167097458538   -0.08579467315502   -0.36262254044817
C         0.59209071582570    0.42075639931366   -1.59916040211016
N         0.65174750902677   -0.84474151386638    0.46275896134472
H         2.78992347788046    0.64542009826414    3.59752737377503
H         3.70094768742360    1.96908543011747    4.37344564687108
H         4.48271315592799    0.55332229718459    3.65693926185298
H         2.74901949647058    1.83326141709608    1.61109242273539
H         5.78419895077345    2.01947875418773    1.75154346331481
H         6.33046252147570   -0.02137496826382   -2.31657920054671
H         5.83188031022230    1.69935918483016   -2.39161614319227
H         4.04588954344196   -0.72937816312408   -1.70678497953826
H         3.83356352196153    0.51711080613150   -2.90746953584382
H         2.33813105167388    2.37900921377824   -1.89046391746053
H         3.86989895151537    3.19184673615917   -1.49038350775127
H         1.70490435491685    2.68266449787994    0.39365076754984
H         2.59797358116243    5.05619298058014    0.98122850768319
H         4.10237273898655    4.34058262649606    0.35008994556645
H         2.65602908820539    3.64072990249206    3.01777198549119
H         5.41415575557780    4.27617879125255    2.22701329560368
H         4.96269233786809    4.07872766913594    3.73134494994738
H         2.95699265298213   -0.40174727236484    0.53160571648881
H         0.78656478658088    1.43982130727835   -1.92295966692336
H        -0.48655100640911    0.25880651858993   -1.51659572450989
H         0.95935267914685   -0.20331716364498   -2.42017154993699
H         1.26972516885773   -1.25379942395163    1.16546809248426
