39
 energy: -52.268998825177 gnorm: 0.109454263211 xtb: 6.4.1 (79825abcba525fcdf90b791dcacef51065a7a4e7)
C         3.97750273286495    1.69935678591242    3.84003815045246
C         3.78776986497440    2.04317787006288    2.35683888696055
N         4.79990417980494    1.29175065832917    1.63502240009370
C         4.74969136715835    1.24582460246665    0.26634709903592
N         5.84688195301243    1.21882590413331   -0.43057488441868
C         5.52212811787082    0.90113999577913   -1.81996545303757
C         4.03969036567475    0.55956399531826   -1.87089367184610
C         3.46679160006995    1.15127082503326   -0.58229830949367
C         2.96796518301891    2.60514157466032   -0.82919514192986
N         2.14084397678711    3.17914055744291    0.25208992053391
C         2.70154401406622    4.08548425190424    1.24839636925957
C         3.77927971111048    3.59622849847425    2.25740025609230
N         5.07424954662477    4.16095854675589    1.80771343671156
N         2.46621942501647    0.24608774246121   -0.00097582844000
C         1.29076116272548   -0.16750793234795   -0.56749594465612
C         1.02757332835812    0.29993653445650   -1.97719813112414
N         0.42890352291987   -1.02875556209203   -0.14063426645203
H         3.21012638387777    2.16972928225867    4.46061957373712
H         4.90889341408119    2.09470575423905    4.25576788450050
H         4.03419968953314    0.63565410118608    4.09131489508447
H         2.82437221361252    1.73981721264232    1.93997622102390
H         5.72103686507119    1.20486263207727    2.06041022797001
H         6.09886881285631    0.05780384253077   -2.21867653066861
H         5.77454436899043    1.79390413758777   -2.39641814873193
H         3.92501450899885   -0.53047371371987   -1.83590072911357
H         3.49121259508956    0.90887996231421   -2.75496757554683
H         2.35228178979385    2.76720857032211   -1.72109485602700
H         3.86264505176833    3.23248024234142   -0.93058943764482
H         1.59079354968708    2.40244692091144    0.61520925484016
H         1.82494296629487    4.35694215095948    1.85216029052652
H         3.05246662779916    4.92778864641709    0.63862790547436
H         3.57191504880980    3.92020596838067    3.28637002268189
H         5.51728580213869    3.47342980953293    1.19338390233545
H         5.74324834757344    4.29700361993832    2.56290721686780
H         2.62092167198382   -0.26750906313331    0.86075564553837
H         1.74906764401922    0.00817408498434   -2.73580214179389
H         0.97369171038966    1.38960665402847   -2.05611870862392
H         0.09647274849603   -0.08183070470700   -2.40814354188848
H         0.52067847715461   -1.35887120419700    0.82146027144668
