39
 energy: -52.265734672644 gnorm: 0.104023728366 xtb: 6.4.1 (79825abcba525fcdf90b791dcacef51065a7a4e7)
C         3.52974203245599    1.42936340294153    3.59663472819233
C         3.49817907844349    1.96750215306410    2.16014524969522
N         4.64674177015549    1.49468999830073    1.40693201214700
C         4.84376262790779    1.32502039168227    0.06145899499464
N         6.00273027914933    1.20363928682151   -0.51501041912369
C         5.74408241805753    0.94484544763314   -1.93025689326477
C         4.27886414330027    0.55376301203058   -2.06094537631831
C         3.59679442788519    1.14353702155798   -0.82573061319194
C         2.97885371501103    2.52226000093789   -1.20096151233659
N         2.39678031450653    3.48364398776804   -0.24194478410210
C         3.30763906841604    4.10007834788757    0.71660358417434
C         3.44104774938561    3.52269717343905    2.15459085048315
N         4.52700515119737    4.17219799154111    2.92720352911921
N         2.74707741238348    0.20685038324777   -0.07804345347650
C         1.44172617546458   -0.17013821624582   -0.24431527743438
C         0.53049104587203    0.40407856277038   -1.30023102089430
N         0.91690594962993   -1.01563375348688    0.57815540004443
H         4.49512029785836    1.19808431423680    4.05466620642350
H         2.97707941959299    0.49788481290008    3.75003711701459
H         3.03060013660876    2.21646263840279    4.17035078500784
H         2.63555325683194    1.61587158437914    1.58903243894072
H         5.39667290126645    1.20833181119514    2.03350367728029
H         6.40020457840674    0.14907212760736   -2.30317076566384
H         6.05037627501408    1.79900206776827   -2.53823718125921
H         4.37047920989792   -0.53901353230444   -2.05910959495420
H         3.92206782870705    0.81326992808990   -3.06582782062287
H         2.27928420187203    2.49450967572085   -2.04396167092113
H         3.82220023340092    3.09076855904091   -1.61309177688651
H         1.53328912749191    3.08954693276827    0.12783164240589
H         3.02560693889155    5.15449048831850    0.84038797906186
H         4.29338254718970    4.02959003238133    0.23933830586775
H         2.50662829954817    3.67285804339648    2.71231147386517
H         5.46016367776365    3.76484936167633    2.82891862581114
H         4.21063437237052    4.14812107854752    3.89452722791208
H         3.34230818860378   -0.39382592172246    0.48336897755844
H         0.23511789881134    1.41582052634234   -1.03510402051161
H        -0.40300179942760   -0.15931830639197   -1.21255127195490
H         0.94589769261330    0.30480154437355   -2.30819424303738
H         1.61224193746736   -1.27027749397815    1.28149693727263
