39
 energy: -52.266535766131 gnorm: 0.111027292946 xtb: 6.4.1 (79825abcba525fcdf90b791dcacef51065a7a4e7)
C         3.53093109070342    1.44275148170249    3.60785865374361
C         3.61183863049379    1.95596275454032    2.16419674257419
N         4.80419954080265    1.47346518920929    1.48925279833798
C         4.86492083488438    1.28583898636981    0.13315105009168
N         5.93588214576914    1.43602248108789   -0.58847430863094
C         5.65566738040689    1.01319011064599   -1.95941851530551
C         4.19954548263969    0.57981965168662   -2.05316609049593
C         3.61077457684464    1.10962020232451   -0.74493515387633
C         2.90131105612220    2.46283769405356   -1.04324697486102
N         2.27934707945628    3.25252824630862    0.03949553801373
C         3.15049554655653    4.09578800478733    0.85096537606172
C         3.54263953202424    3.50897605495751    2.23691238436530
N         4.81130182388876    4.14115657427268    2.67157193558209
N         2.69731335327912    0.15698351173192   -0.09956016602377
C         1.36452961434901   -0.10906925536703   -0.26269200930971
C         0.63508570763950    0.29774756870491   -1.51865541669102
N         0.72618757587473   -0.78067235045468    0.63632173036033
H         2.48487342570601    1.40538863596247    3.92346193101861
H         4.05545977964208    1.99231494575685    4.39492299101425
H         3.98573126228706    0.45168222108494    3.70143469485839
H         2.72034806919542    1.56667910051425    1.66656231568739
H         5.71282224499041    1.47437796647032    1.94902851348059
H         6.33532907514607    0.18143496160968   -2.18091247724821
H         5.95405309833959    1.77046823219087   -2.68779705601294
H         4.09733146815069   -0.49248579118804   -2.25876422353953
H         3.77348164483767    1.12586243997601   -2.90448451733206
H         2.05350885434519    2.35228326486658   -1.72868552504404
H         3.66697473721665    3.01273510580417   -1.60508204360464
H         1.57190676547895    2.65422162709104    0.46284116312508
H         2.69362222600796    5.09093000667322    0.93819396094930
H         4.07586243207255    4.19710562642819    0.26969794763554
H         2.69852020835114    3.62932084142243    2.92953059749433
H         5.49110470048238    4.17146881663093    1.90781354276811
H         5.16673378977040    3.58801427860754    3.44880229014100
H         3.11840551019337   -0.21667864448721    0.74504246543635
H         1.42261787493531    0.23071755656096   -2.26461754046620
H         0.23081791088097    1.30557225320113   -1.65044921924564
H        -0.24374171751711   -0.32782113803852   -1.70502766180164
H         1.38730854674921   -1.03335260166844    1.37259385377180
