39
 energy: -52.260242866418 gnorm: 0.127192705163 xtb: 6.4.1 (79825abcba525fcdf90b791dcacef51065a7a4e7)
C         3.51794559288646    1.40738111420075    3.53746239930393
C         3.66658666201188    1.99148062185520    2.12649638248436
N         4.80971015062673    1.47023650319196    1.39735236796259
C         4.76414173790414    1.40881284921631    0.02912236330380
N         5.85540874742182    1.41868010256414   -0.67748600617624
C         5.42376245143942    1.13093950426612   -2.04411777731262
C         4.03156059974056    0.51837397119367   -1.98557660707353
C         3.45527436471108    1.24033247981992   -0.76677463290768
C         2.84625129104598    2.63464926773171   -1.09616468725867
N         2.56251027617265    3.64675768858838   -0.05794054486690
C         3.63780616925976    4.12819231200351    0.80254153263810
C         3.67315395585111    3.54333426951619    2.24325865085592
N         4.74188097749242    4.12064136201596    3.09333168095674
N         2.58446985988608    0.36203040680337    0.02614543932909
C         1.44154411615540   -0.34552222401032   -0.23230929861020
C         0.67844468335942   -0.08378035126128   -1.50675156821468
N         0.82083141076963   -1.21697468803353    0.49021648858002
H         2.65011551900070    1.97488820181829    3.88393708766530
H         4.34511282092377    1.35791137671141    4.25158263968678
H         3.16846695213278    0.38324842010203    3.37364895623948
H         2.72169077971269    1.78437885440489    1.61834502166117
H         5.68913951770016    1.67510683842616    1.86811971697850
H         6.10238993624813    0.46072319005500   -2.58549663297846
H         5.37574807012937    2.04996206215274   -2.63244732985943
H         4.08387566664110   -0.56738059035979   -1.84080962747729
H         3.45809241818014    0.68230836360449   -2.90682358304588
H         1.96877965736499    2.37920285199306   -1.70081960146489
H         3.64447462995159    3.11150038647743   -1.67903622904433
H         1.69872690631581    3.48406852152045    0.45691347280724
H         3.45490613009286    5.20950989935127    0.73969654745188
H         4.62039117736234    3.94601548814348    0.34891256183600
H         2.83226670838770    4.03575755209917    2.75037618260650
H         5.68177699981111    3.79624951234476    2.85303385446396
H         4.57036348142706    3.73311434123200    4.01896111710761
H         3.14184331731775   -0.13522794260843    0.71343335120693
H         1.31808957914613   -0.11536017142434   -2.38482707430787
H         0.15576598204572    0.87702218277953   -1.52009975747005
H        -0.13941726014569   -0.75395781197109   -1.79025206686322
H         1.28186019733429   -1.45761887447718    1.36917482274705
