39
 energy: -52.263983637199 gnorm: 0.118888370146 xtb: 6.4.1 (79825abcba525fcdf90b791dcacef51065a7a4e7)
C         3.67028601810042    1.31343503826177    3.57238906495517
C         3.57790133041923    2.07416839829282    2.24316320718529
N         4.70521433730472    1.54575586416902    1.49481612390913
C         4.71347979934976    1.32501984968339    0.14237021892481
N         5.79380533181980    1.17373474050658   -0.56492458371783
C         5.49922023370242    0.73782337534552   -1.92874145060421
C         4.00571611419577    0.44891197623865   -1.98226892107026
C         3.45195090728572    1.09842806769464   -0.71330046815761
C         3.03144915617528    2.54766135429331   -1.09595852517846
N         2.54689323886695    3.49625991198289   -0.07216750289181
C         3.60580407145419    4.10339303334766    0.72693649347716
C         3.58876223404726    3.62999495820906    2.20834734800102
N         4.62870964963698    4.40001482186338    2.93199361673971
N         2.50525502013607    0.30547633641874    0.08258357053467
C         1.30950671219253   -0.23449532472512   -0.30770500054991
C         0.82576014726200    0.25155338895691   -1.65112538939070
N         0.56907057289140   -1.01410748653842    0.40693909302499
H         2.92712467496173    1.64644823913684    4.30180765179819
H         4.67335060441614    1.49748399465878    3.96812640039943
H         3.60615280828609    0.22087336673542    3.57611384417994
H         2.73594241735378    1.69086556536904    1.66168118845558
H         5.64063846706172    1.70718186810586    1.86348007596077
H         6.16508073467179   -0.07382253517498   -2.24603772929518
H         5.72333655920486    1.49097847703011   -2.68740392811320
H         3.76289140154105   -0.61625108388614   -1.88728954404453
H         3.62148409724507    0.94029511440038   -2.88523323531119
H         2.12277895971219    2.47585140545257   -1.70421724787928
H         3.86645060754554    2.87372817216588   -1.72899856308653
H         1.80932471107716    3.08097499151900    0.49457338239579
H         3.51026121216320    5.19564303936936    0.79410158632981
H         4.57646337610427    4.02016290519699    0.22163043335656
H         2.58505827520297    3.88660688543756    2.57368140071873
H         5.51721659318425    4.28132761287160    2.43919911342631
H         4.77064938024695    4.12459786638835    3.90172755784608
H         2.92277473766365   -0.11851551979505    0.90489969277531
H         1.62163234518931    0.03809775273679   -2.35977449984563
H         0.52547927154086    1.30205687121671   -1.70391256893958
H        -0.08785119131810   -0.25531479880454   -1.97793944704038
H         0.98930933045751   -1.03254857555898    1.33757554212761
