39
 energy: -52.254779487780 gnorm: 0.138045899129 xtb: 6.4.1 (79825abcba525fcdf90b791dcacef51065a7a4e7)
C         3.79257137624460    1.56035395264070    3.59353382619221
C         3.60757827926426    2.09433734524200    2.16709390580892
N         4.76617391792359    1.74072418906341    1.36541338873679
C         4.69355973877275    1.21885939169195    0.10038890873912
N         5.82050735827063    1.00952811878379   -0.51314662754423
C         5.54743700565229    0.40172332312963   -1.81422366384610
C         4.03509715851564    0.44408683874308   -1.98132554725202
C         3.43088827533948    1.17593488003323   -0.78210162464975
C         3.12997475832776    2.66174021685874   -1.13616310039961
N         2.55392598538233    3.57598778099004   -0.12864094227983
C         3.56674060016488    4.15597462277735    0.74673999841818
C         3.54092098131602    3.64837304656979    2.21665437415900
N         4.70077485171915    4.23797022935002    2.92742811397425
N         2.44538990703986    0.45039834709109    0.03081079909106
C         1.29761750502152   -0.16851644453164   -0.38544816456950
C         0.59344517547885    0.13291592697699   -1.68479886975007
N         0.65996944544440   -1.04098137250370    0.32092769724878
H         3.36623246462895    2.28747561352309    4.28978613174674
H         4.77052530655530    1.34387928642801    4.03326720664291
H         3.22086931513350    0.62979011321725    3.66442561165899
H         2.66341072858070    1.69812941293139    1.78564389083894
H         5.73903599941247    1.68735718105242    1.66152332541074
H         5.91827308477628   -0.62983306890181   -1.77975297806278
H         6.14500844634336    0.97027013296487   -2.53025605150354
H         3.69269406175199   -0.59014584608500   -1.85610519856000
H         3.65380332642452    0.93469319075194   -2.88595618693951
H         2.34989581037212    2.72985461605485   -1.90274911256276
H         4.04890971509717    3.19833053537817   -1.40433476616599
H         1.81755603358502    3.07703541339038    0.36781646290658
H         3.55251696636645    5.25369661414693    0.70861154464947
H         4.53768647943338    3.80852738667332    0.37125967198622
H         2.58512199294036    3.96775861218324    2.65389737488083
H         5.36314522885365    3.53063541256455    3.25502635296190
H         4.33798556461701    4.58656673324111    3.81244207820014
H         2.90101219208636    0.03493676862605    0.83709586813929
H        -0.32060776065952   -0.44380255930259   -1.79908987425050
H         1.23391922083179    0.17053198304855   -2.57073943101600
H         0.30851958688022    1.17774907849217   -1.52495656504965
H         1.13956326494863   -1.36929946530793    1.16070259408902
