39
 energy: -52.260453208007 gnorm: 0.118035934868 xtb: 6.4.1 (79825abcba525fcdf90b791dcacef51065a7a4e7)
C         3.92927134010097    1.47633780598777    3.59044368845082
C         3.61464414981159    2.06553762226562    2.20915991022502
N         4.77259690568019    1.86442660010275    1.35547521467633
C         4.81137190003727    1.28505309600459    0.11421557873479
N         5.85057007914698    0.70560886193203   -0.40977669736391
C         5.55187743156872    0.21737277018020   -1.75484315263659
C         4.12812867620129    0.64630774637450   -2.08017961335685
C         3.55108681579846    1.17347027391012   -0.76567196459626
C         3.09256759809846    2.63922901271082   -1.02030398705296
N         2.33805030432883    3.39596921949967   -0.00009340920985
C         3.02719286074260    4.26810417711081    0.94485797770461
C         3.47712987992769    3.61397948062633    2.28226286939650
N         4.72862992353084    4.25884539048456    2.74700016090504
N         2.59849465765145    0.24944434433952   -0.13544882160699
C         1.33917291595389   -0.16469859694883   -0.47648099217362
C         0.59552568533520    0.38868753786109   -1.66634863207224
N         0.69645746735271   -0.93960645581328    0.33172173181169
H         3.11352071359354    0.89147290544804    4.02371267522270
H         4.33480651401755    2.21206682306429    4.29106102929006
H         4.73805653473361    0.74979350419468    3.46467468989843
H         2.81624472302273    1.41572916829552    1.84276594192896
H         5.68426192777326    1.69653327072517    1.77698261952803
H         5.66295333846016   -0.87338944290548   -1.72808198929620
H         6.35884099707673    0.61411392027182   -2.37488004990937
H         3.51626322013775   -0.17181319348711   -2.47874712172953
H         4.33937336423230    1.51138790930725   -2.72162188122265
H         2.32754668620965    2.63555500009554   -1.80487162147077
H         3.96874611648431    3.21937645924016   -1.33657415896764
H         1.61599400662933    2.89695573857625    0.51690211703745
H         2.31096087318930    5.04479321922469    1.24554973991091
H         3.82138165128822    4.76104463530691    0.36977987428429
H         2.64495465950197    3.73706160552187    2.98871561712575
H         5.51122307259694    4.04804373259338    2.12291019127806
H         4.94542329344324    4.04604549370516    3.71864934878834
H         3.10658978655785   -0.23944701820730    0.59470197909945
H        -0.39058090413913   -0.06644231798301   -1.70647382346338
H         1.13612593060254    0.20557672100642   -2.59948016646373
H         0.47107212737232    1.47628240343022   -1.67391046405155
H         1.21195320616497   -1.07113480124873    1.20349539687822
