39
 energy: -52.266168828995 gnorm: 0.110362258826 xtb: 6.4.1 (79825abcba525fcdf90b791dcacef51065a7a4e7)
C         3.43073995253844    1.55049480008125    3.67853611001667
C         3.62304326793036    1.93158229636316    2.20480502077142
N         4.72892516943177    1.25553867758130    1.54900929132710
C         4.78470020602789    1.30013555613997    0.18050539578468
N         5.87973874663553    1.35188436646981   -0.51840020840328
C         5.63977256775079    0.95108774934601   -1.90352614292401
C         4.16081974198122    0.60733076718272   -2.01038690760435
C         3.54501169327393    1.15984164730114   -0.72418312575694
C         3.02362844115266    2.59086873492478   -1.04643614155929
N         2.32750120081710    3.33384386571638    0.02416020720602
C         3.24942892206301    4.11999349349364    0.83686434747993
C         3.70750822633437    3.48535822095131    2.18087912064342
N         4.99565147173820    4.15378474712389    2.48415804667027
N         2.58693236939675    0.24240554911846   -0.09265168283972
C         1.30890377085553   -0.19277412638075   -0.31841730261507
C         0.65794661894944    0.23901831372627   -1.60870506332818
N         0.57646360468544   -0.89575826203012    0.47914252578714
H         2.41026748107881    1.78441772825994    3.99342347194177
H         4.24348682091845    1.93469112114427    4.30179876542749
H         3.54200251516589    0.46292802179807    3.72988880691442
H         2.64362598332791    1.66632963482737    1.79944095868491
H         5.66113347330969    1.36783441340437    1.94317565412506
H         6.25998305631268    0.04985436054214   -1.98055570645942
H         6.02698882216968    1.62709158662938   -2.66911211023880
H         4.05567416235850   -0.48102554756945   -2.09394649023118
H         3.79225104251441    1.06760311552244   -2.93599085194151
H         2.30314827951031    2.57778652272943   -1.87199901317808
H         3.87006516467617    3.21010694665949   -1.36950825897628
H         1.64229268629111    2.68840171599911    0.41346452689071
H         2.83959969213252    5.09242609107031    1.14192911160766
H         4.21132768891664    4.24175613443639    0.32269941135837
H         2.92240571176506    3.73435928419642    2.90775793146333
H         5.65991158320793    3.80926795899647    1.78670241814958
H         5.39164226473710    3.90934309891481    3.38959986012188
H         2.87611675202468    0.06082199908785    0.86322248673463
H         1.16793217840784   -0.23318007121906   -2.44423055047323
H         0.68289605466494    1.33137437314549   -1.66016792251673
H        -0.37407990287505   -0.12568579437483   -1.62661147435428
H         0.98977021884788   -1.11230761233886    1.38760766179451
