39
 energy: -52.264953999400 gnorm: 0.109994355368 xtb: 6.4.1 (79825abcba525fcdf90b791dcacef51065a7a4e7)
C         3.63376175212362    1.39487905222373    3.62053465456948
C         3.61126247120114    1.99261907784764    2.20763260655899
N         4.72498079805621    1.46834489547747    1.43637011190595
C         4.81043228131494    1.38830656650429    0.07101501831878
N         5.92366152494587    1.19664827457417   -0.57260297412226
C         5.62332475955218    0.56780431008315   -1.85757326251599
C         4.11755454976038    0.61265220456105   -2.07559684026393
C         3.54859896702012    1.23684790384357   -0.80065478124900
C         2.99296356227820    2.63875874576000   -1.18723112723682
N         2.47098788138319    3.57839211954832   -0.17361768751197
C         3.44022428343954    4.11672866447957    0.77466735725114
C         3.40356818768907    3.53492555351589    2.21658821020271
N         4.52197209181349    4.19455980198384    2.93222814000448
N         2.63909346350378    0.32939936840604   -0.08807228506042
C         1.35849979390902   -0.11415046639802   -0.28056109720705
C         0.53683966699400    0.21763126767613   -1.50114617196091
N         0.83565881803228   -0.93082813965010    0.57174862378698
H         3.51872340159520    0.32810488705708    3.41077977061433
H         2.87389576704873    1.80513108041767    4.29203862062675
H         4.68312343766519    1.44462217280146    3.92742816525293
H         2.69134178833700    1.57992112538103    1.78648709097990
H         5.63589025466685    1.66750881025014    1.84572016203091
H         6.00118163622336   -0.45614109267604   -1.74998044667905
H         6.19989061118870    1.04329058353786   -2.65414347999264
H         3.71400842980908   -0.40700280561250   -2.07221149866845
H         3.79730945173141    1.22997070412186   -2.92459456070048
H         2.24005049470062    2.60709207431826   -1.98280386602606
H         3.77882694155331    3.23948974899521   -1.66244443064412
H         1.71781880399935    3.19866709194823    0.39752972675058
H         3.29809016417984    5.20596083095540    0.77923242594958
H         4.49802829188953    3.95394160870710    0.53178465309260
H         2.41982846912762    3.66720230885591    2.68722534389606
H         5.46518022881988    4.01226270103665    2.58079700684269
H         4.54901416674818    4.13986441605894    3.94842814203272
H         3.17454087343792   -0.16725139869493    0.61686012047976
H         0.79044119821861    1.19892507676956   -1.89345745304996
H        -0.52920199958784    0.02335648554224   -1.35173021570464
H         0.93419705856909   -0.39523777896811   -2.31656453153448
H         1.45579538234939   -1.16978375855333    1.34721992316678
