39
 energy: -52.267583391113 gnorm: 0.118923054992 xtb: 6.4.1 (79825abcba525fcdf90b791dcacef51065a7a4e7)
C         3.58349596401341    1.59487874047182    3.79620562701504
C         3.56895082332693    2.08423667024937    2.34210493975034
N         4.55822889309335    1.27195508337300    1.65536970330472
C         4.73182457391024    1.20653553098128    0.29761883602510
N         5.87720748048095    0.89005537344645   -0.22982277670248
C         5.68239203406367    0.74519761359674   -1.67130073549700
C         4.18646201803283    0.72262864198537   -1.95161047726288
C         3.53122232285688    1.23471028697856   -0.66816149997433
C         3.01363533755340    2.68326970281988   -0.90754672012924
N         2.20109177276889    3.34995541745637    0.13076189919449
C         2.79548005222410    4.16228451312165    1.18683668966000
C         3.84283307939016    3.60910391040054    2.19481343645380
N         5.15792585687691    3.95633692111655    1.60485974225517
N         2.56467552603621    0.31592002727769   -0.05168063714308
C         1.37482912293360   -0.15323048186201   -0.53940173385139
C         0.72076012728720    0.44266874895054   -1.76092956941735
N         0.75152346981672   -1.09014613570406    0.09339845312780
H         3.04273571857892    2.39414346218923    4.31000744974581
H         4.59347592619271    1.67102442661561    4.20944034261616
H         3.22456813700682    0.56889847592208    3.92408549655124
H         2.59908927620769    1.83998515937366    1.90205155608719
H         5.45054769352998    1.40372051801527    2.12801628591736
H         6.09759182237915   -0.20156096755935   -2.03746127522635
H         6.27990625026521    1.56182379840456   -2.08256454094291
H         3.87437822872772   -0.31286241685844   -2.13304705479089
H         3.79732934778375    1.23356244809676   -2.84153102285981
H         2.55639333628112    2.90459313730597   -1.87850630772503
H         3.96340853303910    3.22936410774207   -0.97078004017286
H         1.64085404825246    2.59698008268884    0.52677447645454
H         1.92697161738439    4.48311422456406    1.77794670704035
H         3.25404822378192    4.99973527440102    0.64569677688295
H         3.74775892653110    4.10301836327530    3.17141453157489
H         5.32852355707471    3.39719835179470    0.76543246752419
H         5.81843844354155    3.62596590745553    2.30554756277631
H         3.10340392008903   -0.13344640049125    0.68189767263161
H         1.40825140419078    0.80869860749063   -2.51891195606020
H         0.02567689630129    1.19142496713911   -1.37011492526016
H         0.14370751584361   -0.40258472319389   -2.14947212535606
H         1.18643673596214   -1.45029202047713    0.94438039733509
