39
 energy: -52.261641945787 gnorm: 0.112270053312 xtb: 6.4.1 (79825abcba525fcdf90b791dcacef51065a7a4e7)
C         3.55797518653444    1.47110993562189    3.69562872574158
C         3.48217979837527    1.95605191501933    2.24195135435161
N         4.60135789494009    1.38498906190776    1.51297578198715
C         4.75371644473114    1.40723307893323    0.15128760209930
N         5.88056246946751    1.47018458525306   -0.49408942636628
C         5.67486304762998    0.98859727364927   -1.85884469904401
C         4.18808196870101    0.71691469174231   -2.03928898636001
C         3.52791935414788    1.25946065928292   -0.77096837077145
C         2.73801048591723    2.56264189735266   -1.08922712323965
N         2.30486670942831    3.45017228219554    0.00961681158129
C         3.38573116424043    4.07077862671754    0.76793717397493
C         3.60015947104714    3.50730361040796    2.20163543093188
N         4.92126141882641    4.02395053741545    2.63273953142169
N         2.66248670129194    0.24936121309107   -0.14713957644006
C         1.40312690275202   -0.26009810675204   -0.31498666414361
C         0.58661297838311    0.25037020535110   -1.47591711725024
N         0.90456461168302   -1.15378066562209    0.47211185987744
H         2.72739449354837    1.69370230821174    4.37077789282697
H         4.37843693380906    2.00671163171855    4.18203798501484
H         3.78612120050676    0.40175154419935    3.74295714100700
H         2.56481541205328    1.56295259456884    1.79714497356991
H         5.50050974400349    1.61263341974258    1.93332536451000
H         6.32997996926591    0.11047960720376   -1.90931650986613
H         6.00787207050812    1.77163503460032   -2.54367777790657
H         3.98928162509102   -0.36150867500343   -2.04551275194237
H         3.86563391573056    1.31530778659038   -2.90090905413250
H         1.79400027904682    2.39573084022851   -1.62007765055806
H         3.45297929542521    3.11938158373415   -1.70821597760654
H         1.75419319195479    2.81292039658731    0.58262016538859
H         3.11093065707940    5.13006188740794    0.86308610965645
H         4.20158206316313    3.98543863451022    0.03886560454314
H         2.75619267447633    3.78121517196972    2.84927174384967
H         5.51001081824715    3.81162628343431    1.82362259098069
H         5.26285998797855    3.48111699336571    3.42332631774722
H         3.22198503274453   -0.36625916628169    0.43446920972986
H         1.27352220395292    0.39052788354822   -2.30638142192882
H         0.12566301452839    1.23665694035358   -1.36972739300415
H        -0.24920680648784   -0.32670544661053   -1.88432553061373
H         1.52378267225985   -1.40505927808561    1.24441551279430
