39
 energy: -52.261694929257 gnorm: 0.114228029971 xtb: 6.4.1 (79825abcba525fcdf90b791dcacef51065a7a4e7)
C         3.49878797216098    1.46579454903236    3.66484567562849
C         3.64180484726842    2.10516497656788    2.27745850597321
N         4.70162007527291    1.60355001168757    1.41999022640891
C         4.67549097710392    1.28307072353953    0.08788178446048
N         5.76472086840368    0.87874161189717   -0.49551565978416
C         5.45655072558461    0.63726690060175   -1.90388942852422
C         3.94069890820059    0.50477107132485   -1.94297475041036
C         3.37396504342801    1.25506045947813   -0.73687087799841
C         2.90107167776776    2.70869386749618   -1.03157037207682
N         2.58811249172066    3.58485250572542    0.11611612248965
C         3.65094160110120    4.22213173952422    0.88601184645401
C         3.72456649631064    3.65820200844250    2.33360878771092
N         4.87905641026525    4.41601504096486    2.87301362350678
N         2.35892356137741    0.48817897900209   -0.00200996612000
C         1.39977787195126   -0.34115390033412   -0.51771833775935
C         0.68890605134030    0.06271071613931   -1.78523049686678
N         0.99802781992884   -1.36146713615386    0.16368814405261
H         3.65001976969478    0.38470124093191    3.60481030326739
H         2.49782390222021    1.69551865738153    4.04156623581992
H         4.14806654717560    1.98839205838728    4.37417431718296
H         2.69385058555619    1.91719249341207    1.76757002441107
H         5.50896551933314    1.35537741405427    1.98884297476047
H         5.92753824217327   -0.30497642065156   -2.20911803712271
H         5.84036054667290    1.47555312530724   -2.48955632593406
H         3.64577108306326   -0.54997244232091   -1.88737830752112
H         3.54853826499101    0.85962174668232   -2.90460212521858
H         2.03564740972744    2.57821571899814   -1.69098917159824
H         3.59465577174981    3.14878880805282   -1.75926826351778
H         1.74167851310921    3.49545643169249    0.67577850250354
H         3.60069601071077    5.31704998468768    0.81335461005607
H         4.62826328228703    3.95553658440679    0.46386221971210
H         2.93702095725362    3.99199814755976    3.02287828628507
H         5.68330330061110    4.49223334966588    2.24551432426900
H         5.20974894498206    4.08282305318696    3.77634681134323
H         2.83512569980497    0.06513837177646    0.78828352405570
H        -0.15896122084544    0.71510407926629   -1.59375356605561
H         0.18984911740603   -0.83610502358205   -2.15884140206974
H         1.32956557738711    0.33672519555145   -2.62955265341175
H         1.58452036500015   -1.54490213220760    0.97941051421433
