39
 energy: -52.264476936524 gnorm: 0.111132918333 xtb: 6.4.1 (79825abcba525fcdf90b791dcacef51065a7a4e7)
C         3.73242208415708    1.50601712612491    3.76311445165363
C         3.70839853696604    2.04293156071748    2.32602110041987
N         4.86452245127483    1.63972394572618    1.54443370408996
C         4.79825189002356    1.27755390175801    0.22445504842102
N         5.88879189340281    1.10654822133769   -0.46237528615644
C         5.67558036155738    0.74952247643339   -1.86375638797941
C         4.17346269253424    0.52068914253209   -1.95412973024068
C         3.56041703958781    1.09101785763377   -0.67440001031197
C         2.97274930820915    2.48470157709191   -1.04293538136358
N         2.28682957419454    3.17329832527325    0.06977767267984
C         3.11809512782360    4.06322306939505    0.87320875021195
C         3.50223044917045    3.58529009320410    2.30254230193311
N         4.82259973134529    4.23928162943651    2.46687481659297
N         2.56577820700885    0.17076396397411   -0.10671763638104
C         1.27013808166444   -0.09460973724034   -0.45970773247571
C         0.58441047968209    0.61563653106457   -1.60004115159632
N         0.60614504283079   -1.06946132173668    0.06520616711951
H         2.97507567327203    1.91821820437031    4.43524147137121
H         4.63561540782464    1.74437216359232    4.33236774512402
H         3.64560276494846    0.41604306280586    3.71581862263519
H         2.86335684424900    1.66688481314096    1.74427323055423
H         5.83371740437036    1.71702941189006    1.84721209964222
H         6.38292852914716   -0.04942383587788   -2.11705378676020
H         5.95069081518614    1.58055359205650   -2.51701055560335
H         4.07276234225457   -0.57128718669390   -1.95203200483830
H         3.59090816759532    0.79129999484478   -2.84398149668450
H         2.31185999845180    2.34097064083507   -1.90513233872280
H         3.78298951086663    3.08563338471898   -1.47499839430352
H         1.45690863950656    2.82888841978578    0.54964971458362
H         2.63452205532062    5.04469137962186    0.97081356416871
H         4.06787342880085    4.18101950951459    0.33609969826768
H         2.82423721701338    3.93642654436894    3.09233255900007
H         5.52689178477050    3.75837430139327    1.90200446787948
H         5.14815499146914    4.27247790771247    3.43087537896102
H         3.03077443611522   -0.43591359064239    0.56112699951274
H         1.08617160798808    0.26128699474634   -2.49660771355741
H         0.63811307107409    1.70503085596047   -1.51728432580299
H        -0.47694044838485    0.34755928358947   -1.60883089444862
H         1.15437571333276   -1.53760615508636    0.78860676925071
