39
 energy: -52.261198740762 gnorm: 0.132892155007 xtb: 6.4.1 (79825abcba525fcdf90b791dcacef51065a7a4e7)
C         3.87123086107901    1.47293680299954    3.74326435536416
C         3.70513665559318    2.01820567878237    2.31876930968546
N         4.82519264615480    1.39251758452161    1.63754484592582
C         4.79983574497907    1.26409127558626    0.27344575179308
N         5.92354034810971    1.25921614690163   -0.38040481859446
C         5.57873687262593    1.08767214055684   -1.79053912671250
C         4.14278035407732    0.59163510884865   -1.88469690377055
C         3.52343167889760    1.04415034580079   -0.56165299883261
C         3.05401016822623    2.49353402246715   -0.88174117221206
N         2.23850784074636    3.18498946087894    0.13787985727953
C         2.71323124017046    4.12282733627352    1.14959512140057
C         3.72629950683207    3.56912268624109    2.19174584096473
N         5.07667595310007    4.07078523990245    1.84117019979701
N         2.44096189986895    0.21665411403658   -0.01215677804281
C         1.26782492409666   -0.17724535985294   -0.59722207756334
C         0.71621753068442    0.34570620608785   -1.90002036015421
N         0.50321668195471   -0.95799796714675    0.09020543507914
H         3.02787848923364    1.79495319299828    4.35994926167035
H         4.78687917427996    1.92152524709156    4.13946783594136
H         3.88740791546732    0.37884688595363    3.76614467616696
H         2.69455219661484    1.67570765827079    2.08350060433592
H         5.73805637159679    1.65206633412975    2.00673860856613
H         6.27178875522669    0.35213283900563   -2.21654059051858
H         5.73083469809319    2.07795397480234   -2.22556513845723
H         4.24287231444106   -0.49405291502449   -1.76713675469126
H         3.61728959657387    0.94945372935607   -2.77927025478147
H         2.48954310648395    2.52917217135940   -1.82031653962034
H         3.97020063465860    3.06682315989156   -1.07206005623621
H         1.44923329314421    2.63005862109025    0.46462375747875
H         1.89317841778660    4.58837094511927    1.71300631737044
H         3.18459561530596    4.97666796889685    0.64639262429656
H         3.50745013675987    3.93777153309145    3.20315242004295
H         5.61195543240300    3.63949623974955    1.08364571756626
H         5.60839691903109    3.91867310180530    2.69587483754229
H         2.84356267620361   -0.30267201175556    0.76147659934607
H         1.45512247294154    0.16228466706233   -2.67560752464829
H         0.52706110683412    1.39466628411212   -1.65422518883167
H        -0.20801222781277   -0.23159246332323   -2.00458646688987
H         0.89204236303633   -1.25861718484244    0.98545264154016
