39
 energy: -52.262412584168 gnorm: 0.119673694690 xtb: 6.4.1 (79825abcba525fcdf90b791dcacef51065a7a4e7)
C         4.11775385111335    1.49458879254201    3.71506211184948
C         3.72330639556226    1.98969345041042    2.31743050095581
N         4.79598500348678    1.71576442739582    1.37700440876027
C         4.78156228363660    1.22739768081577    0.09669487552749
N         5.88941707408905    0.80426910900565   -0.43610559047114
C         5.61795243084045    0.46699807341145   -1.83229710254998
C         4.14456354204649    0.68044592619500   -2.14924304477003
C         3.55169576726955    1.17923045272573   -0.83070985662308
C         3.01895170985174    2.59737785152105   -1.18927327224833
N         2.35782705893121    3.37485836601743   -0.12099430405127
C         3.22900036844119    4.01630580165834    0.85781733283660
C         3.27696782115204    3.48056841613611    2.31715240392376
N         4.22423844932087    4.41886846285340    2.96550147387261
N         2.66139353433544    0.26976214865143   -0.09677097864438
C         1.38621294885912   -0.11457203380129   -0.41285684572732
C         0.61658070525116    0.38245194876025   -1.61104956394024
N         0.67877864098845   -0.87306957556385    0.35589224014529
H         3.88347561449285    2.11542748377560    4.58391829662278
H         5.17882939958715    1.24594691299389    3.80948939238676
H         3.51030050641994    0.63129736339241    4.00410586230310
H         2.87900021874506    1.47743222272633    1.84980595505249
H         5.72182432610776    2.04537395307274    1.64377934294785
H         5.95736648522899   -0.57251938293490   -1.91606927808222
H         6.36762052584305    1.01215981203927   -2.41008245430272
H         3.60904472851142   -0.24121644413140   -2.40676069099461
H         4.09702526668631    1.32574301889608   -3.03567857324757
H         2.24019026063617    2.55138152963513   -1.95883925485270
H         3.83593834627617    3.22971552652209   -1.55936592642759
H         1.71957757880038    2.78272871644787    0.40785747817685
H         2.87687224687278    5.04349922229718    1.02373636483863
H         4.26271954312132    4.04870808292139    0.49064473896617
H         2.29816353478799    3.74052398494022    2.74271737872212
H         5.10562350865060    4.39044165142242    2.44710977034006
H         4.44872497615018    4.18372371794014    3.93022840469999
H         3.18315825124638   -0.37819444489009    0.48478679696488
H        -0.30975175039460    0.90815584681562   -1.39494076753494
H         0.33476661410115   -0.51821036556755   -2.16413262717996
H         1.23917914780682    0.94490389612725   -2.31420491582209
H         1.08608715255649   -1.21564417308927    1.22753855736856
