39
 energy: -52.257952260149 gnorm: 0.124078870957 xtb: 6.4.1 (79825abcba525fcdf90b791dcacef51065a7a4e7)
C         4.10486995859018    1.85966431809949    3.97271509873110
C         3.69107478782212    2.10836594523448    2.51634543111105
N         4.43677249805567    1.16517866105096    1.70123167930355
C         4.61836300777107    1.15627310516165    0.34297979171394
N         5.74320824455365    0.88013280142460   -0.24755055146724
C         5.54454452732283    0.87496249115693   -1.69575686896432
C         4.03618615093375    0.91073271761498   -1.89691610604369
C         3.41172822460184    1.39160170627091   -0.58633405696560
C         2.90902762821044    2.85648411803107   -0.74425065236524
N         2.05666550761610    3.29000885915575    0.38194508325628
C         2.64613512867394    4.13551259106413    1.41447545782142
C         3.91899452950383    3.59823945182267    2.12871686541293
N         5.23225680848931    3.85627593803164    1.49087323891595
N         2.26743348755401    0.62089568646603   -0.08132044362804
C         1.44496625217187   -0.27892287413788   -0.70388191305146
C         1.04875136786123   -0.00142477728917   -2.13253197878878
N         0.85299068701123   -1.34563202718057   -0.28144435066278
H         3.65091956386516    2.60931934376556    4.62630857347674
H         5.18267639423188    2.04416970238320    4.00290900530880
H         3.79824658788815    0.83668085746976    4.21209951498030
H         2.61003978538706    1.96049629782352    2.45773578212395
H         5.20213388264003    0.62316140178976    2.09800492057112
H         5.90708332578350   -0.01810855261476   -2.21902157218887
H         5.96555098800450    1.75395932852448   -2.18886700637619
H         3.71094163500038   -0.13568774185567   -1.93907652188018
H         3.65328601474719    1.43221179300451   -2.78341666450523
H         2.22105150317921    2.88670034113049   -1.59665472110375
H         3.75120346707032    3.52014623261020   -0.97787241563552
H         1.62816565653480    2.39581767958934    0.61534204787272
H         1.85794169122159    4.46487350365611    2.10507096346015
H         2.95029210872151    5.07117085175627    0.92819045336560
H         3.93439614974083    4.06110792070672    3.12483726859929
H         5.40352653772916    3.26285839782676    0.67545925490241
H         6.01597070087736    3.82312470505027    2.13977911252858
H         2.40392572453951    0.24315159053936    0.85086778344902
H         1.86573364883619   -0.27163827248231   -2.79637235546160
H         0.74024595447626    1.03509366954003   -2.29674701863405
H         0.18341043496559   -0.59982777970659   -2.43503385357314
H         1.22307935036467   -1.52900115314301    0.65259795732063
