39
 energy: -52.264523380790 gnorm: 0.110122523881 xtb: 6.4.1 (79825abcba525fcdf90b791dcacef51065a7a4e7)
C         3.95251238564839    1.27755692248161    3.64566563816244
C         3.73649964296275    1.85248826829382    2.23964857339825
N         4.89934263135450    1.69211188193018    1.38398897322850
C         4.90886049278970    1.34257133065362    0.05898580103760
N         5.99944643538856    1.32925817975776   -0.64861678589491
C         5.62891912381269    0.96606288197417   -2.01521630133370
C         4.27805781919272    0.27050075995567   -1.92435039682975
C         3.65367803367611    1.10036212583449   -0.80172491898892
C         3.03135171513130    2.46175290708183   -1.22933581719917
N         2.38769918104117    3.31556923685859   -0.20978160594797
C         3.23391452343891    3.88433783941393    0.83371819570915
C         3.37571020744075    3.36540214902612    2.29302419807244
N         4.32123047384054    4.33629653600922    2.89422354604226
N         2.62869064722961    0.35355552033590   -0.06002574225621
C         1.30396027112000    0.07078303656609   -0.25709854357999
C         0.53090619751729    0.52432221590720   -1.47024405105479
N         0.56990092191289   -0.73720940935506    0.43214890188944
H         3.10730410980183    1.56179963185241    4.27817421545508
H         4.85399924346022    1.64887178838463    4.14171738152924
H         3.99415302277865    0.18406034328799    3.66435349354654
H         2.85895544960281    1.44157848976264    1.73466684645881
H         5.77731806892433    1.69838864298900    1.89984698128574
H         6.48338231251255    0.37123320990584   -2.36001557851782
H         5.51465382478802    1.92119651167841   -2.53261622641472
H         4.31369955410150   -0.80244274570961   -1.70056666320655
H         3.64258804121067    0.31227495665622   -2.81814525981167
H         2.32841743788636    2.41757959844798   -2.06882909722109
H         3.86152165108878    3.07174238104065   -1.60751222627644
H         1.64681511815705    2.76793441842303    0.22478834008565
H         2.83884867851114    4.89947756876883    0.97536554393169
H         4.23381503256117    3.75230466443152    0.40104375805841
H         2.42864990917914    3.36041030148328    2.84961395513911
H         5.20218088799382    4.20746412886569    2.39053093731486
H         4.48813217135572    4.21776812951557    3.89145979885821
H         3.01874092446428   -0.31871447699640    0.59282143753545
H         0.90656895921213    0.27970732274383   -2.46029478565484
H         0.33717000913901    1.59777557279154   -1.38853213555500
H        -0.42759374898999    0.00426252826094   -1.37420113122590
H         0.91081247256884   -1.01741591928247    1.35317469178207
