39
 energy: -52.269316230648 gnorm: 0.108115297961 xtb: 6.4.1 (79825abcba525fcdf90b791dcacef51065a7a4e7)
C         3.69432291940930    1.82483890910579    3.86046539442477
C         3.67242153709272    2.17373167127819    2.36651568773829
N         4.69571588851685    1.34897866385951    1.74786480681852
C         4.67440847995047    1.17062767766392    0.38932164550178
N         5.84400467611318    1.00259961464286   -0.15295841691870
C         5.65609851320633    0.59990956171767   -1.54555582291082
C         4.15906018187926    0.44539460668410   -1.77335154790117
C         3.48510753406573    1.14184425965308   -0.59032421502017
C         2.95344814078192    2.57438188087866   -0.88815005631732
N         2.16425564999179    3.18064330693617    0.20382246698039
C         2.76844901305933    4.15230958394938    1.10896609299864
C         3.87951463327954    3.69210000113424    2.09522903781968
N         5.24570701385877    3.99694607392515    1.60668795270477
N         2.37907802607907    0.34305510946566   -0.04528150555535
C         1.27672066674712   -0.16555231451837   -0.67760682755044
C         0.77748530103111    0.65039209191710   -1.84381058242848
N         0.70137145276087   -1.23009967661431   -0.22764108175784
H         3.03742114042046    2.42855229206598    4.49232633799240
H         4.72932635930975    1.94979821548069    4.19178649600024
H         3.42312208154712    0.77116196883051    3.97892620050929
H         2.64181284033116    1.96569498577387    2.06902005200981
H         5.65423944922978    1.50716566821956    2.05315027822915
H         6.26713331206517   -0.29484027352392   -1.71548352155714
H         6.09173387484875    1.33701194211785   -2.22374561790324
H         3.88187567920263   -0.61519154349127   -1.74363570448883
H         3.87924654204524    0.86789591782594   -2.74681605178485
H         2.23733671496622    2.70328607204984   -1.70753090855125
H         3.81366297229672    3.22138976451615   -1.10192075056192
H         1.50363647847650    2.58603175454909    0.70150060704455
H         1.97255980087800    4.66637020706034    1.66480032675180
H         3.31243147579738    4.91701863427443    0.53998094302339
H         3.81043776573093    4.30119723049528    3.00680417601799
H         5.39484989299624    3.52843295454089    0.70967651279013
H         5.84029986216368    3.51997740335777    2.28148091228174
H         2.76101497479869   -0.31767589509844    0.62393768543943
H        -0.18944575255379    0.29335993429741   -2.18838539086634
H         1.39236590452672    0.59714415259536   -2.74691586733154
H         0.66877534555193    1.69824228217713   -1.54615207360149
H         1.32625393942100   -1.72048232657952    0.41428696675044
