39
 energy: -52.272139750761 gnorm: 0.098515652300 xtb: 6.4.1 (79825abcba525fcdf90b791dcacef51065a7a4e7)
C         3.56695021104228    1.53851822368727    3.67534022961250
C         3.54657651899475    2.03074617068303    2.22227859615101
N         4.71062019144073    1.59818011972730    1.46864294420259
C         4.81889215437985    1.34682182932961    0.12588503812260
N         5.96512487923160    1.17972939600374   -0.46444285164776
C         5.73377311745577    0.80761279465101   -1.85900412239560
C         4.23855062617009    0.60189196002825   -2.05617961620126
C         3.58673480299832    1.10609215431862   -0.76787597575785
C         2.98311426110747    2.50028688685328   -1.10756595995488
N         2.34365487011114    3.38204276605549   -0.10937762426598
C         3.17324516203031    4.14884085875950    0.81380740324812
C         3.47609843673924    3.58537628071485    2.23146809450542
N         4.79010295528024    4.13777366128188    2.63930924606023
N         2.71642394625131    0.10998943224909   -0.12852060261234
C         1.40549574549148   -0.20638654821986   -0.36321621862959
C         0.50704168309350    0.58006986866803   -1.28479042027955
N         0.77015568466963   -1.14474036570998    0.25532406479451
H         2.64181444922465    1.67529078908933    4.24160442075793
H         4.41587113323476    1.98074649017315    4.20485703588602
H         3.78446717772990    0.47648967544122    3.52500831465575
H         2.64218505829176    1.55517308843703    1.83518231392220
H         5.61045964282194    1.64492818629321    1.94308297000123
H         6.27158425866851   -0.12015553120455   -2.08883303424465
H         6.12582483803216    1.60407994105112   -2.49538059888921
H         4.01254012735126   -0.46183091096622   -2.19749547660097
H         3.81862412236552    1.17789739488954   -2.89063491844529
H         2.23131583699892    2.36376272099962   -1.89304488317083
H         3.88141012978379    3.02578501423530   -1.45570807608183
H         1.50250364945541    2.95614598373982    0.27629150540988
H         2.72676971965176    5.13647722346278    0.99236761926339
H         4.09694614840450    4.18536834398537    0.22229815885537
H         2.76243082909260    3.83692801467446    3.02779752043385
H         5.55525899870406    3.79756485654673    2.05179595803675
H         4.96564378976154    3.62111329681549    3.49874673086868
H         3.25943307463552   -0.49223910213870    0.48201808042465
H         0.87635195769530    0.70653246150543   -2.29907664670193
H         0.34786676860929    1.56612569574498   -0.83884209393356
H        -0.35639833555170   -0.09236295342940   -1.31150943136499
H         1.22750398919253   -1.74538836101801    0.94313173346012
