39
 energy: -52.267913606386 gnorm: 0.122220806643 xtb: 6.4.1 (79825abcba525fcdf90b791dcacef51065a7a4e7)
C         3.73926135069432    1.37014195062077    3.59448747288229
C         3.66022295729774    2.05849998569239    2.22554346954468
N         4.81652422115480    1.62713654023248    1.45940333485081
C         4.82291838909794    1.26889891379457    0.13670627615774
N         5.92802626288049    0.93707794034118   -0.46236615185617
C         5.55136609988359    0.64703690691840   -1.84468263656103
C         4.03872337165492    0.49865627051718   -1.92705193867170
C         3.52021448502371    1.22568480830322   -0.68552625235847
C         2.92465285769723    2.60449346888609   -1.09506137955856
N         2.31753578167961    3.32945583214814    0.04011267776344
C         3.26714958008982    4.13448936366292    0.80078646834690
C         3.49432129881593    3.60575441454127    2.24571090471253
N         4.63625703478581    4.36579570249310    2.80820992182700
N         2.58694847619747    0.34819008794759    0.03381687541026
C         1.45414259894187   -0.20138734467556   -0.50323441045820
C         0.69012899919890    0.49146392490224   -1.60381279524490
N         0.81867905128127   -1.14910512825116    0.10073088236934
H         2.91326812437514    1.70334141777381    4.22848380591385
H         4.72505316788866    1.54375385554004    4.03572892201168
H         3.67508245864898    0.29145927047317    3.42087096279315
H         2.79726746278980    1.60628923347356    1.73082087220809
H         5.76917465731587    1.83532110247387    1.75284172730188
H         6.16124754639699   -0.20349655225196   -2.17248390947469
H         5.90668029444455    1.47580126803470   -2.46107613611256
H         3.78217871682037   -0.55669665097732   -1.77548571025175
H         3.62221513204816    0.82369788423370   -2.88897969631971
H         2.17073342078783    2.39040557083615   -1.86095217535804
H         3.65545616213257    3.38009111647606   -1.35709475496522
H         1.64868743383669    2.81258385438147    0.60857496311160
H         2.69898065940005    5.07322703202635    0.85182888904066
H         4.21345379211680    4.27538765329079    0.26310909305779
H         2.69926716511226    3.93178098985062    2.93006159890655
H         5.47783847600986    4.34411243619958    2.22713490467024
H         4.78269156880336    3.92190697600452    3.71259094222568
H         3.15415347582662   -0.22927990813653    0.64627301029496
H         1.32945079786661    0.63521991733952   -2.47085447815019
H         0.35484518915086    1.42331347235557   -1.13931968101029
H        -0.11466811204544   -0.24331643559986   -1.70777388167488
H         1.26983498574007   -1.51199917629910    0.94203410849189
