39
 energy: -52.263520930345 gnorm: 0.120531171761 xtb: 6.4.1 (79825abcba525fcdf90b791dcacef51065a7a4e7)
C         4.13767405158168    1.51408207446568    3.71762982502319
C         3.66419399485401    1.99179238746807    2.33860805761016
N         4.65478154575138    1.53024066394650    1.38164199451755
C         4.66830986349813    1.31393028280308    0.02852359684885
N         5.76979658036700    0.86293286638881   -0.49452965327408
C         5.55184320955322    0.52340057984889   -1.89952420638465
C         4.06113882011249    0.72643585189989   -2.13075273641718
C         3.41056096776730    1.27776894604618   -0.86126927277870
C         2.85489914909003    2.70671339538680   -1.13123908529594
N         2.39744164668956    3.42213031306754    0.07776586803547
C         3.40692955295975    4.11246610341362    0.87327867841671
C         3.48935567169676    3.53803255815906    2.31626388525887
N         4.58630464549125    4.27590809024160    2.98732854897709
N         2.61691160234109    0.30478817272645   -0.09846781286306
C         1.36523863435544   -0.12965322059473   -0.44239228957420
C         0.67161810985830    0.25068207917947   -1.72663061160989
N         0.64240589180504   -0.83715539089075    0.35992341915749
H         3.31788353701826    1.82964725166685    4.36847556787646
H         4.99456240608257    2.07398157611319    4.10347372206887
H         4.32588282078632    0.43700373657145    3.66969590007067
H         2.64016320795127    1.71862620073254    2.07275400793239
H         5.56035681674706    1.34810830243725    1.81030385136610
H         5.83654710729356   -0.52115408575913   -2.07463976477055
H         6.28847184100126    1.07742395647865   -2.48559232596766
H         3.61046187044517   -0.27240554248246   -2.17274593765748
H         3.83962077470133    1.27492491561616   -3.05515831756683
H         1.97833522596161    2.52820526633617   -1.76415882465556
H         3.61296352189265    3.26462096481127   -1.69547682286027
H         1.73949908416042    2.83084880092468    0.58290137889155
H         3.17635300575529    5.18281009202924    0.96186683895750
H         4.36861365820649    3.98389818684327    0.36037037789046
H         2.51957628062039    3.70594788076258    2.80419078377536
H         5.43676033984029    4.03992013878453    2.47020915905126
H         4.71097794299147    4.04452775148761    3.97084520380285
H         3.24299521343274   -0.32022819842444    0.39919619871586
H         1.34256368758906    0.54239280834361   -2.53030735437969
H        -0.09324388400348    0.99805605356387   -1.49656337177201
H         0.25769120562165   -0.71513001368071   -2.03368108367786
H         1.15744072546096   -1.04640023075731    1.21665009990090
