39
 energy: -52.268537422785 gnorm: 0.113420742602 xtb: 6.4.1 (79825abcba525fcdf90b791dcacef51065a7a4e7)
C         3.59605731029876    1.27331034158104    3.45793483584856
C         3.68342053689111    2.08314611368997    2.15769438855821
N         4.81037400883579    1.58071516700816    1.39113275171941
C         4.75471472057859    1.26807489993314    0.05806835643395
N         5.84403707972792    1.20452738987029   -0.64875188573829
C         5.45190294010326    0.77876695814930   -1.99104634232025
C         3.99056077438697    0.35506793762417   -1.94806096460835
C         3.44990878647485    1.13965157455973   -0.75184531433047
C         3.01977968163605    2.59786807368733   -1.08668788736360
N         2.60396079401386    3.56087677226563   -0.04625982230702
C         3.43474192149462    4.22717388333242    0.95089653660808
C         3.64508696576114    3.62448807295521    2.36916978858102
N         4.77512268410362    4.34562722257526    3.00246491512970
N         2.45249842919134    0.42910149280727    0.05977532625770
C         1.34493249807525   -0.24355535031473   -0.38129046551965
C         0.66461322603148    0.16972181212837   -1.66246183882469
N         0.73071771814415   -1.08371871772026    0.38266155527118
H         2.79132008470447    1.65206511433963    4.09368703913669
H         4.53039147388319    1.40548230369808    4.01126191754296
H         3.32928598868693    0.21543830402880    3.37099947487929
H         2.75538256916783    1.81605132433140    1.64647711968567
H         5.74313051274474    1.84089258951245    1.70619267987755
H         6.18065319448183    0.00428431897676   -2.25921778859580
H         5.62868756549863    1.59306734231878   -2.69723439390250
H         3.69932067529378   -0.66517572767611   -1.67086188115285
H         3.52984147798667    0.57779684352597   -2.91891920816589
H         2.25253391295617    2.58978808273861   -1.86904681052432
H         3.93666283840783    3.00114399262342   -1.53499635415427
H         1.71993954456294    3.30928914478439    0.39291464037091
H         3.05163198865061    5.23699229173757    1.15125424529079
H         4.43491032821758    4.32996953609790    0.51096795824633
H         2.77699561650718    3.72090666717315    3.03539882816921
H         5.57086659302308    4.13898578959956    2.39380358730517
H         5.07960417262901    3.99238803968641    3.90739496835603
H         2.87865582570367   -0.07781895858811    0.82900685199853
H         1.11582666394801   -0.35110248272923   -2.50288310693795
H         0.75166994866804    1.26010413063778   -1.66202943358039
H        -0.34500812816518   -0.25321582434548   -1.67649541792498
H         1.26830096877229   -1.34921311365174    1.20942745650453
