39
 energy: -52.264103399820 gnorm: 0.117136452672 xtb: 6.4.1 (79825abcba525fcdf90b791dcacef51065a7a4e7)
C         3.26766243118921    1.56690836321008    3.61935036581200
C         3.55332697345993    2.01908903406562    2.18128918437743
N         4.73893150832561    1.51595453856613    1.50951887885033
C         4.75224306294574    1.33328891170291    0.15144719307534
N         5.87649184373152    1.42119908991500   -0.49554033426515
C         5.69826124660301    1.00154927971253   -1.88439721616931
C         4.27096682429519    0.47694839644955   -1.95158411740535
C         3.53058425745219    1.06116709441679   -0.74770283470113
C         2.86467421202453    2.43767994991736   -1.03976817890038
N         2.47312192045755    3.46717405585713   -0.05508021996917
C         3.47727406668616    4.14413921416988    0.75847162366609
C         3.66250678810430    3.57146731868511    2.19259505481074
N         4.78841995159669    4.25897353289584    2.86915982901460
N         2.65029373679278    0.12309670454720   -0.03809062887101
C         1.38160074142666   -0.26831152246988   -0.37114655853258
C         0.51885667027203    0.35274397489537   -1.44119102524613
N         0.83710498145967   -1.30868603384819    0.16541865163152
H         3.92478083030358    1.98239512044847    4.38798825926850
H         3.33950847190930    0.47564995894337    3.59457411904216
H         2.26238038276703    1.82577587190687    3.96606864490250
H         2.71026544462674    1.72809195616976    1.55001652698569
H         5.65481484990620    1.76707363959468    1.87706025983187
H         6.38699434058425    0.17566365120572   -2.09974780067775
H         5.86684808035873    1.85837873089386   -2.54049268055770
H         4.34709668706316   -0.61299319507623   -1.85783532621298
H         3.72467350997974    0.78015944261681   -2.85383843693104
H         2.00129677321403    2.07038720106096   -1.60588857239233
H         3.50846503707837    3.00650035308281   -1.72260300258508
H         1.80651851275701    3.02398392596029    0.57490909052725
H         3.13614809550697    5.15967451794183    1.00131062403133
H         4.43008766195669    4.19906596678332    0.21665038397833
H         2.79045500244389    3.99952330262544    2.70546350393318
H         5.58550780094229    4.48269458888374    2.26834578687709
H         5.29587791167330    3.67453421924203    3.53044827661503
H         3.15423005635006   -0.58708003491998    0.48343865878993
H         0.24159232659926    1.36822613217374   -1.17085809252474
H        -0.35953272623632   -0.27738442215266   -1.60817285480907
H         1.12604923702473    0.33586523830463   -2.35192741015610
H         1.40295308647379   -1.75917024247433    0.88646288327796
