39
 energy: -52.266452789123 gnorm: 0.122124364758 xtb: 6.4.1 (79825abcba525fcdf90b791dcacef51065a7a4e7)
C         4.12196378052105    1.46118368807577    3.72114495704372
C         3.66162173003928    1.93857730187300    2.33757273834038
N         4.77852148601743    1.67379961769420    1.44734497727149
C         4.73747317718103    1.34025741340327    0.11882428811142
N         5.86190332777958    1.25679531521674   -0.52843707867548
C         5.62308564597166    0.80101213816803   -1.89665612206093
C         4.14626227806225    0.46120342796413   -2.03952779453457
C         3.51836990726059    1.06660920606120   -0.78332598864876
C         2.99858645139882    2.48280938032688   -1.16768027741229
N         2.42173859671597    3.18868095657371   -0.00502229557387
C         3.27199829159191    4.05984159659394    0.79909682593103
C         3.35965420847292    3.46160404745165    2.23206666274738
N         4.41943149016461    4.23954748821769    2.91745798354328
N         2.57269229429492    0.15797552805843   -0.12112087379938
C         1.23805423767437   -0.03543463479399   -0.35573189091667
C         0.72877864638536    0.44389333594921   -1.69211338480197
N         0.50344818105634   -0.82756150816398    0.35112448191641
H         3.36498398453741    1.72945998948062    4.46293162645581
H         5.11206609628207    1.82160846653645    4.01510414075747
H         4.23499271003248    0.37263689369730    3.71073881344730
H         2.73548131136415    1.46038314898589    2.00965281610247
H         5.67570780435390    1.95820318470290    1.83613935738146
H         6.24869148071802   -0.06532708126591   -2.14341494113074
H         5.92892211145778    1.57897802026087   -2.59970137609587
H         4.11825588380133   -0.62943283157881   -1.92868803173191
H         3.81023769267122    0.79218702414593   -3.03047355789475
H         2.13863761720121    2.39285660201571   -1.84089150675894
H         3.76524703998160    3.04090641615909   -1.71998989067465
H         1.68248989337861    2.64650920393617    0.43907822262474
H         2.85265103609811    5.07287248329284    0.86666873092949
H         4.25414533535753    4.17009199994332    0.32194592139984
H         2.46752964849724    3.84576128680527    2.74517217767601
H         5.32203900414508    4.13667393851451    2.44725124802518
H         4.48127560430845    3.81642492185756    3.84132372362955
H         2.92968595491890    0.00549352950065    0.81674925542869
H         1.47427805188821    0.28707100631427   -2.46722422643189
H         0.37604665069480    1.47329432223493   -1.58063957866959
H        -0.13401805006510   -0.18835865393368   -1.92502485095241
H         1.03739455473889   -1.13605500792818    1.16522393335126
