39
 energy: -52.264805419882 gnorm: 0.120912144198 xtb: 6.4.1 (79825abcba525fcdf90b791dcacef51065a7a4e7)
C         3.91598819509227    1.48817627502779    3.74806313696673
C         3.63780716178165    1.94312433101824    2.30940781905242
N         4.72185813261279    1.43691474780464    1.48559770897539
C         4.77593649490303    1.24405898416291    0.12994849999114
N         5.91473771202429    0.95049344645918   -0.42431445347535
C         5.69803984788102    0.76337686703126   -1.85778051947073
C         4.20920786112025    0.51771729091636   -2.05758097048605
C         3.56048072608424    1.11664446488600   -0.80888272415245
C         3.01803495069231    2.52839761125331   -1.17797839439149
N         2.32791881292967    3.15860957799816   -0.03370818845459
C         3.12507422233092    4.05247918041921    0.79936465107872
C         3.39530728827544    3.47771257121339    2.21908001071388
N         4.63589481410211    4.17882335191647    2.62831271535615
N         2.67291788060403    0.14911451600256   -0.14967493443188
C         1.32958111704573    0.01906480445487   -0.37823992697159
C         0.61419951417460    0.43706348539331   -1.63861235873077
N         0.51599738510593   -0.42755738706932    0.51918254666611
H         3.09331652286052    1.71961599214960    4.42988791188169
H         4.84364338795163    1.93285955511095    4.11999490693771
H         3.97649122592044    0.39884293996567    3.83472463653176
H         2.74953595821329    1.47893734578961    1.87415856267553
H         5.59384698260083    1.86120822570479    1.79640352309387
H         6.36325292108986    0.00962892875962   -2.29615459220563
H         5.97806636406538    1.70125503131855   -2.34255798123279
H         4.04120315185722   -0.55740069696422   -2.19342273924297
H         3.89872627027046    1.03815635049969   -2.97255667640191
H         2.34708741977265    2.51324824960094   -2.04424437825651
H         3.95037263480495    3.10082739014343   -1.26375292573020
H         1.76630360828022    2.48982871668555    0.49068159691252
H         2.46061031484472    4.92611958595453    0.84283668869630
H         4.10182862630505    4.29724676510311    0.36292380100966
H         2.64959044672192    3.62782073395602    3.01161657868623
H         5.41397989958189    3.83484181074172    2.06030042342449
H         4.85037058262534    4.13829528529228    3.62266824747552
H         3.08067391501055   -0.38857268843671    0.60856188855401
H         0.91297790975924   -0.10069390417373   -2.53455201876601
H         0.79497997555839    1.50677773853062   -1.77840684279728
H        -0.45680549655970    0.32230007707164   -1.44319974588531
H         1.03464955102726   -0.73762270349696    1.34251984875336
