39
 energy: -52.258628506878 gnorm: 0.120349339378 xtb: 6.4.1 (79825abcba525fcdf90b791dcacef51065a7a4e7)
C         4.35443454301926    1.48378301405179    3.70760115900144
C         3.88201747653835    1.95952690897224    2.32753544454002
N         4.86761678435779    1.87707032304463    1.26364041415652
C         4.87212746940992    1.30152806994128    0.02000327404915
N         5.95605370016820    0.98597664978113   -0.62481264107459
C         5.54944160771388    0.48218149144446   -1.93540509515148
C         4.04537107199927    0.25253938691712   -1.89152049324476
C         3.53816540478597    1.10223579688088   -0.72551603636655
C         3.12464589966212    2.53213290575674   -1.18150056673062
N         2.40633092567177    3.22614017388828   -0.09285038102302
C         3.12294408318944    4.04239475770514    0.88114345954498
C         3.34784947131017    3.42072575573489    2.28895007973046
N         4.18907806780062    4.41147800017068    3.00227298741879
N         2.48075048913217    0.44436810852317    0.05392013082919
C         1.25279111781189    0.07554702509734   -0.42544963164579
C         0.48702978408562    0.77464720808874   -1.52084953275805
N         0.75839151499478   -1.04162472615134   -0.00801305232978
H         3.64486185670830    1.43330109948606    4.53777958265365
H         5.21717067756671    2.02318965455450    4.10928193700188
H         4.67289920773938    0.45992916617684    3.48823501969688
H         3.10851327808134    1.28128957335371    1.95926575385506
H         5.79248813865607    2.15384991841824    1.58767093616598
H         6.12483119827858   -0.42052794421521   -2.17385574050375
H         5.81075603524340    1.27548467181854   -2.63926894577699
H         3.87915932945765   -0.79086770090742   -1.59786666372520
H         3.49148912023990    0.36114521242418   -2.83271958416482
H         2.57108554474157    2.48978297812305   -2.12627264103528
H         4.00888869014441    3.16151750309897   -1.34360052159850
H         1.60558964232353    2.72840081300604    0.29280886059862
H         2.54351085437520    4.96208309922614    1.03951058483560
H         4.13391957465755    4.23600158177799    0.50050464772236
H         2.32902888321462    3.34490357115093    2.69267756842190
H         5.00982219973641    3.84417854600407    3.22794545953216
H         3.81837544714612    4.75525870702803    3.88589037884912
H         2.87842206672171   -0.29750054851784    0.62118006675700
H         1.00747265550773    0.71074126239073   -2.47280261531936
H         0.31665701608962    1.82357972958955   -1.26156909737801
H        -0.39642299777320    0.13820657866840   -1.63426460528535
H         1.44298562833446   -1.67857695788094    0.40265425866064
