39
 energy: -52.261028983163 gnorm: 0.114973072834 xtb: 6.4.1 (79825abcba525fcdf90b791dcacef51065a7a4e7)
C         3.83262983735719    1.56766106089636    3.83995365619907
C         3.73199353035006    2.00997626873937    2.37423842782328
N         4.71595519641637    1.27321238443183    1.60023832685687
C         4.76702133547216    1.09578251508993    0.24236738937044
N         5.91023571564577    0.87330322919986   -0.33540436362806
C         5.59004942073917    0.59533784909202   -1.73433664367747
C         4.08688354892828    0.68261512457313   -1.95741637674044
C         3.51409438511214    1.22199854120332   -0.64601024112918
C         3.08435647595359    2.70611575016962   -0.83639780960910
N         2.08467990449499    3.19891185073756    0.13343746732978
C         2.72531238459752    4.03708197024021    1.14117296569028
C         3.80036591107008    3.54899182208527    2.15359687444236
N         5.13649435682127    4.16992592801405    1.98840991881647
N         2.44212170668583    0.44763572844196   -0.00595264425169
C         1.25656790119340    0.00233358952084   -0.52544925364516
C         1.00697691927298    0.16387012724943   -2.00417935224873
N         0.39038716355512   -0.69747387316009    0.12781746684310
H         2.95176123073561    1.95617205991751    4.35799588333794
H         4.67199839730919    2.12493520724176    4.26601300127979
H         3.97897145009003    0.48444944454197    3.78468452317349
H         2.73053224517134    1.67876928567775    2.08908158732071
H         5.69174241127764    1.33081445495636    1.88573976619670
H         5.99040707231236   -0.38716424756304   -2.01222078913864
H         6.02752612973370    1.35332478387743   -2.38787273459593
H         3.69960978532927   -0.32430270260547   -2.15412117057792
H         3.87973021782655    1.25755872301112   -2.86898838383692
H         2.49836567511470    2.73668271271740   -1.76186920520836
H         3.95598231047545    3.37224053310318   -0.86525684599824
H         1.48596658665328    2.42703318892204    0.42224504562167
H         1.99022290201420    4.62474926225494    1.70768886305529
H         3.21546966157652    4.80096837166963    0.52419293289562
H         3.41598737252115    4.00030795383959    3.07842505682879
H         5.65317214371233    3.90639017848208    1.14581236859555
H         5.73436429888008    4.28822397057374    2.80384992447619
H         2.63141719827109    0.08805075838296    0.92418791936326
H         0.17410719642544    0.84743866093351   -2.14638169696920
H         0.62214675139757   -0.78234945544921   -2.39544256637036
H         1.87696662097291    0.64337403846260   -2.46418193987948
H         0.60141961256254   -0.81271702698828    1.12039451739089
