39
 energy: -52.263889032100 gnorm: 0.112896749562 xtb: 6.4.1 (79825abcba525fcdf90b791dcacef51065a7a4e7)
C         3.83499144333997    1.53130356217214    3.87221012814941
C         3.67993714606849    1.92520583951404    2.39745906085863
N         4.77419026452816    1.30739745040063    1.66876113513605
C         4.81497511216303    1.24949737772015    0.30022660000317
N         5.89949023770457    1.22015653655375   -0.41616883550732
C         5.63985486251610    1.03021454919940   -1.84210959624106
C         4.20613512507786    0.52453657013802   -1.91712316477552
C         3.61217944737245    1.15952211302989   -0.65902221925474
C         3.05100587423330    2.57471586404705   -0.98434800833187
N         2.16826677654546    3.14491508344175    0.05412502461597
C         2.62506778433205    3.95225008639787    1.18018585264902
C         3.66556522873049    3.47256891048524    2.23196781660658
N         5.01393529540456    3.96012722102036    1.85478060410081
N         2.58755013906447    0.27080006966172   -0.09444729715869
C         1.30159687925107    0.03665156166585   -0.50090423906915
C         0.96592597842352    0.24475406401738   -1.95660022804084
N         0.32637014964586   -0.34373272156716    0.25473958614902
H         2.90278127658422    1.74101053229077    4.40347770681919
H         4.74203016472345    1.88599745470487    4.37030009804395
H         4.05779554011734    0.46814619654099    4.00589894223679
H         2.74589186370940    1.66000715151064    1.89629414976611
H         5.69760223851047    1.32516536709872    2.09769514180466
H         6.34063821158534    0.25413152482972   -2.17288755371882
H         5.89849147144133    1.98386361864320   -2.30762011505928
H         4.13056140936346   -0.55929571874862   -1.76828280698204
H         3.55180174061178    0.75854903375771   -2.76654777481267
H         2.36807515176948    2.54491473566118   -1.84081422413192
H         3.93255262335859    3.21329005913015   -1.12357804232939
H         1.59404748728665    2.44036338359301    0.51406332322883
H         1.68696711221722    4.12778516956296    1.72406472039897
H         3.03655689985699    4.91537447788027    0.85230010111466
H         3.37688608814764    3.94325282333316    3.18163159381649
H         5.20269716397959    3.60005603809888    0.91611380229708
H         5.78502533577780    3.82671175158256    2.50593785367971
H         2.86873409396750   -0.20671055081755    0.75597306639454
H         1.79062423675245   -0.00559183850071   -2.61868717951115
H         0.72732358708871    1.29283438037603   -2.15935428100059
H         0.12314087622527   -0.40378873856953   -2.21643473390694
H         0.59978879353645   -0.42968305849811    1.23498428378907
