39
 energy: -52.268023901273 gnorm: 0.107332161880 xtb: 6.4.1 (79825abcba525fcdf90b791dcacef51065a7a4e7)
C         3.81719454399493    1.63988564071477    3.80757712765205
C         3.68394480274988    2.07310671836427    2.34174782243510
N         4.65803413721384    1.28165268461848    1.61042831146801
C         4.74232391998070    1.13507641958874    0.25053374803441
N         5.89002623658009    1.02705505018528   -0.35060444225626
C         5.62982441364880    0.92722013211627   -1.78556909145584
C         4.16850673670583    0.52510483026054   -1.92608055067161
C         3.50508259114741    1.08466957854336   -0.66688887958591
C         2.93454883931594    2.47028997470741   -1.08887626281516
N         2.40929668765832    3.38499263429602   -0.05436627003919
C         3.37809981314192    4.12384104675938    0.74812577875233
C         3.65124689537495    3.62205273978100    2.19469877258028
N         4.85648038430202    4.36822113298601    2.62912954514931
N         2.38210299073225    0.38217397689226   -0.03139406283098
C         1.25943584901870   -0.19029141418734   -0.56581936674861
C         0.50973604024251    0.25108304997428   -1.79796026029574
N         0.70366901351205   -1.18861028841399    0.03521276258567
H         3.19169381167620    0.76265807022560    3.99320759967876
H         3.48738249665869    2.46203554924751    4.44938251918192
H         4.78299651758504    1.14754593735632    3.95806338556059
H         2.75436112657320    1.69011081869904    1.91381612862903
H         5.61536216613704    1.37040349310510    1.94604133685554
H         6.25219539406701    0.14235058798951   -2.23216777206628
H         5.79330818819458    1.93586283862506   -2.17151265796851
H         4.05415899210672   -0.56452644201696   -1.87933067815052
H         3.68149695359820    0.93190037121383   -2.82149946745796
H         2.07810376009926    2.29274742908158   -1.74902573802362
H         3.67336661560006    3.04456030672672   -1.66215503359896
H         1.72744687580719    2.91790893284273    0.54109806461352
H         3.08609415061277    5.18208247135935    0.78695150933956
H         4.37796749184499    4.16476915660220    0.29753675953399
H         2.89146666435029    3.93708993201425    2.92286485649720
H         5.70721182395719    4.06569981784089    2.14838581564576
H         5.00246730010130    4.36819346026469    3.63663791810700
H         2.68818408570686    0.04589988613292    0.87609131211860
H         0.03645619833749    1.20761309659115   -1.59249522518370
H        -0.20445180895094   -0.53822868227251   -2.04982403419113
H         1.14982893161497    0.52965581045908   -2.64121986830644
H         1.23056115901881   -1.53716422608979    0.83765883682201
