39
 energy: -52.262802646838 gnorm: 0.111013975582 xtb: 6.4.1 (79825abcba525fcdf90b791dcacef51065a7a4e7)
C         3.47602584010879    1.23511192705346    3.54431764627497
C         3.40746543294682    1.95946707516403    2.19350283289050
N         4.57761410960035    1.46225259963374    1.49093067398963
C         4.74536114868171    1.45618035845133    0.13088408730279
N         5.93297553184810    1.23650002151409   -0.35033209776327
C         5.69597194693315    0.95534795556149   -1.76510358911958
C         4.23630462594471    0.57781561347288   -1.97422124544750
C         3.52740185404164    1.22814702445097   -0.78538403269706
C         3.05055708111833    2.60683591139985   -1.32885622470966
N         2.49459406894027    3.51896066798827   -0.30821168641444
C         3.39061503993663    4.10105759357619    0.68515610104153
C         3.40637260784423    3.51423070423418    2.12542003065466
N         4.62134849190074    4.17715844985324    2.65687610406229
N         2.67656268086316    0.29420798372509   -0.03553904834503
C         1.40878704607655   -0.20212298370772   -0.17734546061491
C         0.53411707924679    0.34131669127757   -1.27946078132542
N         0.98709002999174   -1.15532088432339    0.58445658271116
H         4.49591952779807    1.07388163509549    3.90356646078035
H         3.02610724090474    0.24064526831452    3.47199930649761
H         3.01539931150316    1.89531534910438    4.28578416391235
H         2.56602249693356    1.59416802959201    1.59981300640098
H         5.40433811685943    1.77223770489612    1.99830275654147
H         6.34935010608091    0.18201202704340   -2.18684373096725
H         5.92961452114266    1.88379931051675   -2.29086848286301
H         4.20848615636349   -0.51828566098177   -1.99280608776879
H         3.91325063845467    0.98017365729484   -2.94281832888439
H         2.29613989899900    2.49772270502239   -2.11610833041798
H         3.89772508016076    3.13130221328833   -1.78877812719314
H         1.75355411029506    3.05284865325532    0.21261793964918
H         3.16569230256659    5.16087617673959    0.86638522891470
H         4.45678923494553    4.12109775384973    0.42571066654580
H         2.51725814573861    3.75136548598245    2.72540574654797
H         5.42846110656468    3.73561450225049    2.20967834402101
H         4.56956418083957    3.98595518289980    3.65544758523682
H         3.25679337568209   -0.20576835026889    0.63053273615523
H         0.28323989528725    1.37557468136653   -1.05916446040431
H        -0.45283748159028   -0.13003879148553   -1.29550319833224
H         1.05129514503700    0.16992748356853   -2.22896646934487
H         1.76179754245364   -1.50002682169654    1.15369376575594
