39
 energy: -52.265896981821 gnorm: 0.108918732627 xtb: 6.4.1 (79825abcba525fcdf90b791dcacef51065a7a4e7)
C         4.01538945307467    1.65144924931139    3.76683428534393
C         3.63971547720405    2.07184860934480    2.33987072577683
N         4.72502372562425    1.61834790853945    1.48750878675765
C         4.70699013346936    1.20469412178376    0.18119031930640
N         5.85624750107216    1.01260251723274   -0.39549390339782
C         5.73389790836842    0.71558204132638   -1.82153911932178
C         4.26463046988958    0.36375452223202   -2.00690396712155
C         3.55121350049983    1.01253814849125   -0.81992292419253
C         3.12627693613467    2.48550987872018   -1.09067964974307
N         2.43178763390975    3.24781636179829   -0.03268383810246
C         3.10203649604592    4.11973104956254    0.92596166531156
C         3.44998422057455    3.61641105562580    2.35584824712354
N         4.70241475433279    4.32091420313504    2.72078415195180
N         2.48532888245125    0.19488067706806   -0.22514299845216
C         1.21192004389445   -0.17260093149098   -0.56733555278430
C         0.43210713785002    0.52806367564908   -1.65176782524153
N         0.61573325380864   -1.14286233907944    0.04086760551914
H         3.57900128647793    2.48681528396244    4.32088032150943
H         5.08360506305630    1.50503806894541    3.95149558782143
H         3.47246848730315    0.72012320406442    3.95574319111179
H         2.69710003032492    1.54862588428555    2.16196260922692
H         5.67580666448510    1.88029090360264    1.74125557374642
H         6.51216501923233   -0.00564409262653   -2.09893663925962
H         5.93469705152998    1.68157818133221   -2.29012278556036
H         4.22534885251754   -0.71909126132154   -1.83820533065494
H         3.89595206923232    0.67064294762034   -2.99398648866855
H         2.42923087532881    2.48466827010999   -1.93622263615329
H         4.05278961087555    3.03696854834448   -1.29501828401251
H         1.70127033395856    2.71006020019523    0.43081040003552
H         2.48481366757698    5.02688206789883    0.97852277974929
H         4.05475507093300    4.48375017230427    0.52067368316154
H         2.60387954239600    3.87336820671692    3.00763055688152
H         5.48692473287702    4.14053879886558    2.08960551540617
H         4.92836422570325    4.11049492220573    3.69086449257956
H         2.81281829883079   -0.42991465399048    0.50470430738024
H         0.01506307998417    1.39861173152097   -1.15238845002534
H        -0.38218357817181   -0.12469870714175   -1.97940262180671
H         1.04995260389859    0.87334015470325   -2.48690828920529
H         1.17220395174321   -1.58467685434279    0.77446502841188
