39
 energy: -52.267132680333 gnorm: 0.119242064253 xtb: 6.4.1 (79825abcba525fcdf90b791dcacef51065a7a4e7)
C         3.84267837672787    1.51180816968824    3.76995631671050
C         3.62716300548953    1.96763655845072    2.32086516654392
N         4.68741959317015    1.42846320726281    1.48706312825258
C         4.69537838691332    1.45669103765125    0.11701112724507
N         5.83410957252122    1.31375243327053   -0.49382128025342
C         5.63080648889933    0.89257918726768   -1.87876766914528
C         4.17506185826164    0.45461521600564   -1.95547927333327
C         3.48176603797450    1.14536556805515   -0.78031424685504
C         2.97889097959614    2.56746086525586   -1.16539563007481
N         2.44327605289766    3.43014567596706   -0.09223521027691
C         3.48474304512476    4.01124947773403    0.74808309341011
C         3.48275314745090    3.51400322246814    2.22175757575753
N         4.53318657094661    4.29859333611967    2.91392310223785
N         2.49782209439957    0.33143219737702   -0.05381322042245
C         1.35072872746308   -0.26043976860878   -0.50941497878302
C         0.40983633028708    0.50867326161767   -1.40284604607574
N         0.93397110688155   -1.35913760471189    0.02531217665958
H         3.04068897802950    1.81845606931640    4.44672667564012
H         4.81900836336885    1.86199896475103    4.11747147473707
H         3.85779814440894    0.42134302806091    3.67789589798945
H         2.66821267783971    1.58304769292511    1.96527708907161
H         5.64213104112242    1.50473422973137    1.83303791314382
H         6.29189625043135    0.06140625969103   -2.15249766618955
H         5.81858116180204    1.70556360576647   -2.58363396615602
H         4.20065210448834   -0.64077689850652   -1.91055137717313
H         3.78811363736821    0.70329209440284   -2.95190642063713
H         2.14695238488440    2.54042876571238   -1.87811177471375
H         3.84650986291894    3.02317498530954   -1.65920611799020
H         1.77002048763951    2.97076375702651    0.51879615156912
H         3.51046588400979    5.10306860908693    0.63010436514051
H         4.44521319055391    3.70478133450601    0.31447574302590
H         2.56936592025873    3.93098603912715    2.66739126716445
H         5.35874366974901    4.39555331322498    2.31774200295638
H         4.72876951252016    4.14586183683724    3.90124559471568
H         3.07972808672565   -0.27742315238436    0.51273440072343
H         0.65804305984041    0.73811760554222   -2.43575849571561
H         0.08556266545833    1.39119521081066   -0.84381629662097
H        -0.43764157085155   -0.18329130336567   -1.43992327079186
H         1.42391505197323   -1.92370332211942    0.72118957920326
