39
 energy: -52.266934583252 gnorm: 0.108202301733 xtb: 6.4.1 (79825abcba525fcdf90b791dcacef51065a7a4e7)
C         3.99924260386996    1.32761277796228    3.57499005405143
C         3.72845134591687    2.06372447524864    2.25631525700887
N         4.85528364857890    1.80791903748269    1.37603671331445
C         4.77891344931644    1.28631591982954    0.11112549293335
N         5.81335448392906    0.65573426885338   -0.36063174310255
C         5.61466467185453    0.35989320414134   -1.77830447082709
C         4.12644183485224    0.61286772453027   -1.97346135288773
C         3.51264728157760    1.32364232664359   -0.76645526901790
C         2.99666623582862    2.74572932984146   -1.13382170081184
N         2.31059037843742    3.45344578891813   -0.03326773175806
C         3.17423086558845    4.17909539829192    0.89194993004747
C         3.43521983450167    3.59122821663508    2.30802592092830
N         4.58148046575989    4.32765720971935    2.89270023113639
N         2.52635051409126    0.49478407694365   -0.06030399656785
C         1.36919993509475   -0.12568866989582   -0.44724671222794
C         0.63523320851566    0.23099079916471   -1.71575174595284
N         0.76902508872016   -0.98706738698220    0.30413457268218
H         3.11554853234146    1.45343014278636    4.20625293838823
H         4.83360780965604    1.66392165607067    4.19736587330847
H         4.19739979068784    0.30698676519765    3.23312132998400
H         2.88638251627237    1.61070719045853    1.72751223458242
H         5.61556543652703    1.38753615216127    1.90729898543003
H         5.91305250823651   -0.64112421436533   -2.11258734631026
H         6.15198210907676    1.11653899853245   -2.35433971453251
H         3.67133874197483   -0.36541248068676   -2.16943654810060
H         3.91836899529365    1.24164605382261   -2.84854974030355
H         2.33432771359347    2.76356616420262   -2.00663690150381
H         3.85169670983324    3.33863670023380   -1.48263455694625
H         1.49192616890280    2.95541751844363    0.31230552679258
H         2.66355053686320    5.14114900295851    1.03445651551863
H         4.08925117291542    4.44605549285583    0.34797281769724
H         2.53242341113818    3.72223968877608    2.92001848469508
H         5.37293523083719    4.14372607386072    2.27129347367825
H         4.70588374879768    4.12351107683165    3.88226250017076
H         2.95243931577214   -0.02430737595568    0.70080572775242
H         1.05669592575429   -0.38657484175670   -2.50451107618201
H         0.68312470425923    1.31218403583909   -1.87462354697879
H        -0.36582680813454   -0.15075681390647   -1.49090496891176
H         1.26524999241177   -1.14013807060033    1.18354067621915
