39
 energy: -52.274834072275 gnorm: 0.106548503707 xtb: 6.4.1 (79825abcba525fcdf90b791dcacef51065a7a4e7)
C         3.60253745754372    1.46393726560329    3.61719876050324
C         3.59900550710750    1.98484656863862    2.17403120942530
N         4.77830869087161    1.47029899968990    1.49981865386641
C         4.84072492941009    1.33241424706683    0.13783678041918
N         5.96653762757001    1.20018258472176   -0.49880827074905
C         5.76969937580178    0.55070389550824   -1.79350038703293
C         4.25703490298164    0.48699814150093   -1.95059048099072
C         3.58296989942124    1.09782782521779   -0.72122827205845
C         2.96430774040573    2.46415605233847   -1.13827781095501
N         2.43086678717504    3.39098440901423   -0.11886049985501
C         3.45861120821452    4.06416050872111    0.66793383105773
C         3.49780468269961    3.53720259062747    2.13072346307899
N         4.63147690441965    4.30562527410462    2.69852538046245
N         2.58745918963147    0.26988948511534   -0.02702839798998
C         1.28384066460141   -0.02609310934963   -0.32144580220780
C         0.44901260092227    0.52300276822987   -1.45130784577555
N         0.68865355738320   -0.89907883558413    0.42044718876606
H         2.64889450206624    1.73664344768807    4.07701883641803
H         4.43529142595714    1.85504789130788    4.20895371520737
H         3.64033307045880    0.37141942597260    3.67005906808232
H         2.68888411671961    1.58530071059856    1.72018171073423
H         5.66422664783257    1.55149463598226    1.99534504105098
H         6.24981513142095   -0.43207545347761   -1.71318955139577
H         6.29991477329803    1.13739661911608   -2.54696091380885
H         3.93383882332755   -0.54529032113020   -2.13081834837122
H         3.88196746391076    1.01467656636107   -2.83677109200127
H         2.24014236913276    2.22709743670959   -1.92580850137617
H         3.67747316771843    3.08631909587767   -1.69379099734119
H         1.71255335361025    3.02144107745630    0.50172604752526
H         3.26501059588242    5.14518591097521    0.64442755550242
H         4.42448206586618    3.84246338136612    0.19635687358234
H         2.56506021810543    3.92044098934617    2.56644858252939
H         5.52101160832877    3.96961982661490    2.32142325208421
H         4.77513478493038    4.22154225234763    3.70285488947105
H         2.83860751718979   -0.26308025238089    0.79950858671500
H         0.95735049916988    0.54531618244884   -2.41164846823409
H         0.15041137060280    1.55858322922227   -1.26443069215571
H        -0.50849744495292    0.01007619383670   -1.58728322456584
H         1.27563613246862   -1.14058046996509    1.22054299781918
