39
 energy: -52.271549249230 gnorm: 0.098825516546 xtb: 6.4.1 (79825abcba525fcdf90b791dcacef51065a7a4e7)
C         3.84921159273653    1.63537048852310    3.71509581563207
C         3.66288112192483    2.02660521132048    2.24325754365830
N         4.81420182955080    1.54553442813006    1.49954436951203
C         4.79435211528361    1.26323342452108    0.15871823485767
N         5.88092948675590    0.82138855096754   -0.40197693767772
C         5.67273721464053    0.45535688049964   -1.80178847159202
C         4.16503006432370    0.55043718382074   -1.98798304206576
C         3.55745695564189    1.22984243704856   -0.75994745619969
C         2.94592967918912    2.61266896795546   -1.13055663448448
N         2.26555124030265    3.37821327923171   -0.06575205352337
C         3.22032147500004    4.11617590571803    0.75418387880419
C         3.49532191902869    3.57272547495505    2.18527110922048
N         4.63906234711401    4.32270473026300    2.75752462987178
N         2.56786517360603    0.36656558126400   -0.10123801767490
C         1.34659304024497   -0.12931476459818   -0.47043393743988
C         0.43706847993930    0.55172869089456   -1.46239024055954
N         0.89537356751919   -1.19698618863319    0.09810427447161
H         2.99237232432270    2.01361054048206    4.27900979867868
H         4.70620013220348    2.22010745043158    4.06190116516617
H         4.12032678640005    0.57808122161737    3.79543202960351
H         2.77498341063385    1.68200940289351    1.70769374080657
H         5.64271827764524    1.40676465711737    2.07512511458414
H         5.98527888371447   -0.54917848367310   -2.11169591478508
H         6.29569341387974    1.16120623639525   -2.35563118095410
H         3.74537723275615   -0.46266552649403   -1.97951735545355
H         3.92746764410043    1.10345142282972   -2.90568426168294
H         2.26013960654814    2.41070742912109   -1.96105068478841
H         3.73135362034399    3.27525528369448   -1.51575175554502
H         1.75485292015994    2.66779984183597    0.45594144363328
H         2.97952324064517    5.16999706937971    0.94944479875809
H         4.19655390670466    4.03521934786891    0.25935337083941
H         2.62137144290557    3.84824396925746    2.79110970996281
H         5.49910608064174    3.86576840533980    2.44461627785721
H         4.55383200330523    4.24441571014177    3.76895526176575
H         3.05204349508399   -0.23686989925807    0.55582559822207
H         0.77501259200172    0.37825363541825   -2.48065327371484
H         0.40027610740701    1.63956932725405   -1.35393873785407
H        -0.57645044468157    0.14011707027638   -1.42039348123990
H         1.44702219336953   -1.63840990826201    0.83556869776040
