39
 energy: -52.263041465345 gnorm: 0.113184090519 xtb: 6.4.1 (79825abcba525fcdf90b791dcacef51065a7a4e7)
C         4.22566875881468    1.85867319788220    4.06511719091194
C         3.71152632079490    2.07659617110075    2.63604102980803
N         4.30607259894275    1.08070386832084    1.76151773216565
C         4.62065230068421    1.18646584004563    0.43194764282242
N         5.80009592142545    1.04034209190250   -0.09513579468280
C         5.63594318081545    0.92592244693212   -1.54315429096618
C         4.15207353178430    0.68275856313076   -1.77956861886186
C         3.46953932936395    1.34281872655604   -0.58070430596814
C         2.85728304386342    2.74594058414574   -0.86340075468916
N         2.08639637481219    3.20581125288146    0.31007034372839
C         2.64612725146982    4.05680163493664    1.35457341816523
C         3.87907701864083    3.54669840671952    2.15370033588930
N         5.04514053990972    3.84633803779829    1.28848528412988
N         2.45161412231575    0.36643913351808   -0.16967131471292
C         1.40435594293376   -0.21655796706621   -0.83078647028223
C         0.97209535429040    0.36430686467861   -2.15395662396236
N         0.67449149308654   -1.18721012751475   -0.39273482772735
H         3.57336211477792    2.39943066394759    4.75599739221449
H         5.24312245816968    2.25292274336955    4.14242103347567
H         4.21462543609487    0.77362587390295    4.20783474494683
H         2.63065681682742    1.91772070227980    2.61562284415909
H         5.13507341530422    0.74685546694101    2.24967002523129
H         6.19936567321436    0.04107977191205   -1.86319297171929
H         6.03376865317927    1.78042330561057   -2.09506249329383
H         3.95651176561358   -0.39616486682250   -1.79496652853868
H         3.89700354859945    1.14422033824022   -2.74208018553772
H         2.17436791594307    2.76241216550360   -1.72023940046728
H         3.63355939174892    3.48252244601969   -1.10656501708254
H         1.36970006712199    2.56510523860213    0.64697734457263
H         1.85944395982218    4.35760560381775    2.05976560890264
H         2.99383610136447    5.02161913258410    0.96384755188030
H         3.94636112929839    4.23514432565669    3.00707911817482
H         5.08125079487236    3.47337336627825    0.33666016162696
H         5.93204821511886    3.70745109838633    1.76857954049939
H         2.69210401869455    0.01948193030423    0.75341098024305
H         1.74473270223100    0.68492032976984   -2.84778509946797
H         0.23601101972525    1.11340412047864   -1.84810401713982
H         0.53517118668470   -0.51042922368255   -2.64623958941427
H         0.96779188069027   -1.57892463949944    0.50367997906500
