39
 energy: -52.263786072517 gnorm: 0.104540877591 xtb: 6.4.1 (79825abcba525fcdf90b791dcacef51065a7a4e7)
C         3.63779272422162    1.42464223196472    3.67418183374367
C         3.63936150312106    2.08291235257187    2.28826353209211
N         4.78451186238319    1.61783139477177    1.52510684854420
C         4.79732404289703    1.33208490040409    0.18492499797358
N         5.93236591507601    1.16895896471119   -0.42771375519170
C         5.68543863357017    0.83360346652498   -1.82891293805143
C         4.19884497255070    0.57042087097231   -2.02298444255504
C         3.58090983259923    1.12330155650771   -0.73796028167525
C         2.83267294259446    2.43499425550892   -1.11628531881598
N         2.48764062453125    3.29655542861333    0.03325665935948
C         3.45128187033066    4.11281479367494    0.76372648728175
C         3.54264845028147    3.63544322100884    2.24113733531164
N         4.68921061797194    4.32139943609798    2.88374484629607
N         2.61642544548868    0.17961275399562   -0.15687659958685
C         1.32780920325091   -0.18450529217227   -0.44076880630825
C         0.63550643988568    0.15156604833083   -1.73799868431030
N         0.56927143092213   -0.84806518908480    0.36611760824185
H         2.86375234072131    0.65677599515160    3.59367731215880
H         3.56466721699701    2.03103014977408    4.58168774009555
H         4.60224284782819    0.94328553625973    3.86378573755669
H         2.79231076869466    1.68694935981285    1.72288262319283
H         5.65331032482243    1.98043454443904    1.91330518385144
H         6.22426492081429   -0.05937504799611   -2.16813532031657
H         6.03444664721405    1.61956697203263   -2.50233276460103
H         4.03807214836768   -0.51416916862627   -2.00365011691005
H         3.68547930394217    0.96923192877574   -2.90720252156995
H         1.81655811797447    2.19017987983342   -1.44551692285103
H         3.47215135468386    2.97604520241020   -1.82524082595117
H         1.54351995864395    3.67808383752856    0.06039273572364
H         3.17564760084746    5.17416083078924    0.82868802814909
H         4.45714818046567    4.07204640729045    0.32667745178546
H         2.63665124330973    3.78042513238951    2.84519825527042
H         5.50183824910639    3.93788818565084    2.39493698964506
H         4.87324261215322    4.06449036583276    3.85148203149522
H         2.97708477343921   -0.36242744866074    0.62184856289611
H         1.37357548336578    0.53423277683299   -2.43798417279209
H        -0.18369512736187    0.84850129503716   -1.53874328696335
H         0.14725832997223   -0.75409843166186   -2.11188917510740
H         1.02940094050906   -1.14305255333351    1.22883898399603
