39
 energy: -52.265248239469 gnorm: 0.121351094304 xtb: 6.4.1 (79825abcba525fcdf90b791dcacef51065a7a4e7)
C         4.05063500329899    1.79842611151212    4.02908061979470
C         3.73134106121484    2.09452889945652    2.55786817350403
N         4.49814910942396    1.18340581262439    1.72604012846277
C         4.71372195986427    1.21719568804409    0.37315831278426
N         5.86165680927415    0.90318580702687   -0.15019601301418
C         5.78386586676292    0.68401662464691   -1.59335538765859
C         4.32329258081093    0.87585720689019   -1.97651645226337
C         3.58912744609537    1.22254541464124   -0.68051613658402
C         2.92537992337947    2.62039678246150   -0.85074189538689
N         2.06200892041443    2.93865073021532    0.30515025418267
C         2.51361378213367    3.94772149326760    1.25714774051444
C         3.74621497787803    3.59262981757610    2.13668083449103
N         4.93108756596714    4.03710272911846    1.36427814362517
N         2.55172523076876    0.29865750946510   -0.20232711197290
C         1.34434339270572   -0.05830199798518   -0.73946544010665
C         0.78101981275716    0.51934297763937   -2.01383793398366
N         0.60070389678526   -0.91883529659805   -0.12853195266970
H         3.26286378671738    2.29405076550550    4.60267521617978
H         5.05566473746019    2.03875252780220    4.38793861724630
H         4.02146727145839    0.71284714112705    4.16504198394987
H         2.69070679814285    1.79783397558769    2.40624476316151
H         5.44144233045138    1.08331708154675    2.09640470326605
H         6.04870884635913   -0.38024100567186   -1.58786774850717
H         6.48198741950318    1.34083030168769   -2.11705527957400
H         3.93800059832666   -0.08689521464842   -2.33318874903750
H         4.16007503650807    1.56668652364979   -2.81350573684260
H         2.25770382665492    2.69074433430149   -1.71681158782555
H         3.78943335001184    3.28916746982900   -0.95293841143760
H         1.72813463126403    2.07718160580628    0.73417593565151
H         1.63262421131481    4.26297885681933    1.83257786699716
H         2.73963219564075    4.93146302222059    0.82632383985719
H         3.82447016278985    4.13160677908239    3.09068305860428
H         5.21149403917372    3.44314329978983    0.58008297081491
H         5.71627445859162    4.14086735009686    2.00388720458684
H         2.88984169253012   -0.20397686095396    0.61212458318325
H         1.63724524507030    0.67202024548624   -2.66554882622953
H         0.28244215886414    1.44563847011280   -1.71398856198363
H         0.02040191132644   -0.14603050304889   -2.43472628649427
H         0.93924606116564   -1.25409045543756    0.77480522948801
