39
 energy: -52.266213776745 gnorm: 0.102642890589 xtb: 6.4.1 (79825abcba525fcdf90b791dcacef51065a7a4e7)
C         3.70125911966939    1.43994536086669    3.68731384585221
C         3.62384946392385    2.00756260412653    2.26396920547450
N         4.78169595649629    1.64140774378164    1.46684945919003
C         4.79933675245912    1.28584474264301    0.14353302799189
N         5.89342767460947    1.31131102424964   -0.55830235233857
C         5.68652566372004    0.84649954954023   -1.92868091159559
C         4.24158689331223    0.36937430346984   -1.96600368716624
C         3.58033155424859    1.05830965079041   -0.77146718983705
C         3.15082269592736    2.51115858193547   -1.12962657443381
N         2.47696729773653    3.25819186386770   -0.04766451591126
C         3.25631883856392    4.13724124592866    0.81740966306369
C         3.45596154222281    3.55462496292907    2.24558169122690
N         4.64055696583090    4.23581750002258    2.82072998512361
N         2.55280470975357    0.25214446184712   -0.09862010477546
C         1.30232114824113   -0.19619369017340   -0.42875994250714
C         0.53641887208876    0.39207278007174   -1.58736629360739
N         0.60202986174352   -0.96715799539624    0.33410513337235
H         2.94748793425587    0.66119294324856    3.83088167507719
H         3.75935202469662    2.19439770948937    4.47728060903748
H         4.62214534952173    0.86266398655600    3.81589346308389
H         2.70831360651043    1.69612918659805    1.75530376687834
H         5.66450434736330    2.07089601039891    1.73736552145528
H         6.37943958160351    0.03792056767443   -2.19114338910563
H         5.89079629947033    1.68917526512084   -2.59291779251950
H         4.12922077599149   -0.71265374520080   -1.82763308294878
H         3.84282318808617    0.56160041258637   -2.97023115449825
H         2.56810320948254    2.54417829690142   -2.05707714214785
H         4.05539952265342    3.11263644759488   -1.28535654872012
H         1.66835175150956    2.81265747433482    0.38280514845240
H         2.70258283001771    5.08250703243205    0.73679521576154
H         4.23173724398622    4.31032679521729    0.34513719542592
H         2.61785905168337    3.75229364857226    2.92767522993326
H         5.50287334482901    3.96387299086077    2.34236368961216
H         4.84063177067062    3.98319367242433    3.78640932099597
H         2.81165919475823   -0.09083655488264    0.82097436431761
H         0.61798168178693    1.46608230740345   -1.73231614597873
H        -0.48987567876244    0.20552163043038   -1.25807792977672
H         0.64005219718144   -0.19946206398810   -2.50265593330680
H         1.01407253802438   -1.34524449773471    1.18867889166575
