39
 energy: -52.268526766679 gnorm: 0.103335789140 xtb: 6.4.1 (79825abcba525fcdf90b791dcacef51065a7a4e7)
C         3.89895095743162    1.63076103251498    3.83995478192017
C         3.73355571047443    2.04068692620709    2.37070438722417
N         4.74484989493102    1.36353127396914    1.57772138838518
C         4.80075570309431    1.12028687796576    0.23027591299052
N         5.93056554993808    0.79740785342838   -0.32608297167716
C         5.67657549943544    0.65608073208135   -1.75867197280808
C         4.16784418064525    0.59150883074606   -1.94959033952011
C         3.55320811476074    1.16768004276376   -0.67324507364863
C         3.06309041746838    2.62530445697776   -0.91540560337696
N         2.21515489385774    3.19712927951928    0.15080424110429
C         2.75890964773946    4.10222659568391    1.15758106728727
C         3.68413545298157    3.59454969777226    2.30003266047657
N         5.00471162383062    4.18230922552782    1.97033211108036
N         2.50930383020404    0.28774328102858   -0.13064752966514
C         1.26708425058996   -0.02328916547103   -0.61423610782693
C         0.84133137673303    0.26276183332659   -2.03266543237336
N         0.38470039547364   -0.55446524810529    0.16422884871789
H         3.09427513159812    2.08779240035524    4.42206919787511
H         4.83184877577112    2.06169230196990    4.21494880913886
H         3.84135482397854    0.54783652600624    3.98751882804272
H         2.71688986334695    1.73339334738375    2.11399753742531
H         5.64597140017305    1.10034219734833    1.97231142828092
H         6.09157158961903   -0.29959689644255   -2.10112596790816
H         6.11492105234024    1.50381438231016   -2.28993492492603
H         3.77695360841574   -0.43294053306697   -1.96587940511264
H         3.93519994925843    1.09868361437763   -2.89462292197688
H         2.30604512234225    2.56129520084275   -1.70509041682970
H         3.93246104421493    3.20644675615575   -1.24820436555891
H         1.68919395829942    2.41579034389512    0.53879739907664
H         1.88605057880607    4.52202043242470    1.67578936671315
H         3.25471550387446    4.98412193472279    0.73228338894131
H         3.34234938813309    4.10892704838203    3.20851408818403
H         5.53695438390403    3.56029744149130    1.35698339392529
H         5.64512726907431    4.32489724384733    2.74874187517411
H         2.58509715181694   -0.04040803646629    0.82688455966452
H        -0.16677946635790    0.65252297017720   -1.91883129123466
H         0.60069400283253   -0.66376934197315   -2.56195391479746
H         1.56592555169070    0.91870852314027   -2.52572292204133
H         0.72021972018618   -0.77616967938171    1.10300401502454
