39
 energy: -52.269094576511 gnorm: 0.116389053357 xtb: 6.4.1 (79825abcba525fcdf90b791dcacef51065a7a4e7)
C         3.90377163195211    1.34521327601282    3.52488360072069
C         3.75612014424145    2.01717761807044    2.15347756982287
N         4.94512067398592    1.77903166635105    1.35370135326745
C         4.84222460551296    1.28250690034746    0.08060350207868
N         5.89761083580435    0.75575803371015   -0.46616142220251
C         5.56779304528733    0.16809118143379   -1.76333659445493
C         4.13880150121323    0.60786546205626   -2.04876832874097
C         3.56008393059196    1.21943730516310   -0.77210321738398
C         2.96549474239742    2.63356807501636   -1.03710100897706
N         2.25031034937642    3.34070388664595    0.04514292020161
C         3.13436423529342    4.16999870815609    0.85704734554920
C         3.43914136278224    3.53805031495748    2.24511305119881
N         4.41260362427423    4.47882774015238    2.84959150047124
N         2.66161315705344    0.29875812746518   -0.06249977700422
C         1.40379128483156   -0.07838084666096   -0.44896955617951
C         0.65446727578457    0.53954018095607   -1.60297109314945
N         0.71786366288263   -0.81573353489963    0.35884929151739
H         3.03935534240795    1.47026034051315    4.18244405761823
H         4.75206477309630    1.88262878438816    3.95870838015272
H         4.28904032183334    0.32811531701330    3.40282736160129
H         2.90774478768026    1.59030135531810    1.61313220745628
H         5.81426911088528    1.58510728754579    1.84762855195789
H         5.58598548770341   -0.92826283806020   -1.74113041715181
H         6.22589865086910    0.53752161169779   -2.55292993969218
H         3.60364888524671   -0.29681670774953   -2.36136887781608
H         4.07174194434354    1.43768947363388   -2.76384266451741
H         2.21507177692197    2.45276128287556   -1.81491276841184
H         3.76892151985135    3.25139047681899   -1.45791873751986
H         1.83179326296303    2.59781764435029    0.60248268042653
H         2.58767733537179    5.11573631192653    0.97264786116366
H         4.05193345333540    4.20962739402840    0.25626681024313
H         2.53838858878377    3.67973004196663    2.85773983568424
H         5.35164441636355    4.23176976091795    2.52781143667112
H         4.46767504857696    4.27352223822754    3.84518282889346
H         3.12121382650511   -0.17634076295461    0.70778839655420
H        -0.25555917519885   -0.04545343824980   -1.70686405230014
H         1.17398427080997    0.53847984547370   -2.56557881283081
H         0.46177913478418    1.58494445115525   -1.34141869551237
H         1.24555636338838   -1.14134955471788    1.17035376230941
