39
 energy: -52.262057391355 gnorm: 0.120896290321 xtb: 6.4.1 (79825abcba525fcdf90b791dcacef51065a7a4e7)
C         3.47080684883784    1.32574721871195    3.56750071384434
C         3.54447603120513    1.94781856267324    2.16689668143912
N         4.74867619597909    1.45682281945504    1.51966958041625
C         4.82908982753402    1.32065999447681    0.15845837015851
N         5.93144369842990    1.46401006837518   -0.51572489228943
C         5.78013503286007    1.08730135107253   -1.92000113782687
C         4.36407049226123    0.52975381988534   -1.94813492454401
C         3.60405798475918    1.10151385536781   -0.75052085912218
C         3.12931369276894    2.49426413684211   -1.25884214384654
N         2.46134386081327    3.25245832485379   -0.18100189323553
C         3.36631008955061    3.97300667473823    0.70799539769228
C         3.36681618063439    3.49375964019162    2.18762248433916
N         4.51440898854008    4.26018554479050    2.72957011065276
N         2.65937748837491    0.16702120734754   -0.12383180572791
C         1.32013368514602   -0.09962368985298   -0.21888481857729
C         0.47272693681688    0.53264082004340   -1.29460587846876
N         0.72999228275316   -0.94887398859903    0.55394376534214
H         3.62571054773216    2.15833509280034    4.25890531869467
H         4.06681770920283    0.44161334358425    3.81183442911092
H         2.45966149333671    1.03060907430881    3.86464797968432
H         2.67130720179840    1.60199144554538    1.60840137187969
H         5.64188372802222    1.50996313475025    2.00582405598146
H         6.45841989539005    0.26602777179495   -2.18125881656526
H         5.97019734620080    1.86352696934979   -2.66457456853335
H         4.36948133708869   -0.54897894614405   -1.75099635130670
H         3.93725123703448    0.68908822010868   -2.94657072695019
H         2.28700256949372    2.37261631928125   -1.94915413464609
H         3.94197580310355    3.04559729330592   -1.74863671327454
H         1.75482002530651    2.66068214803519    0.25292109333445
H         3.27952001205607    5.06565074546669    0.78042524191955
H         4.36571725213368    3.76155234752085    0.30685533271435
H         2.45225060956839    3.78224601087984    2.72342629027774
H         5.34848726932657    4.20212032658130    2.14023190733485
H         4.79407731598985    3.83139509572988    3.60951879292059
H         3.11936740104726   -0.37781756681748    0.59856393099134
H         0.37671691978280    1.59529446242329   -1.08794496150047
H        -0.54186853287609    0.12616880722072   -1.25114104080313
H         0.92325606569036    0.35292832843445   -2.27600049057492
H         1.34175474544768   -1.39312266284156    1.24054021538861
