39
 energy: -52.273234570719 gnorm: 0.107552908063 xtb: 6.4.1 (79825abcba525fcdf90b791dcacef51065a7a4e7)
C         3.59307988547209    1.57663495848644    3.76650303591748
C         3.56187916750438    2.09928710911608    2.32429888813673
N         4.51651214949263    1.31623978319446    1.55906001605801
C         4.64149391560771    1.28515775304600    0.19475942765212
N         5.81801394052980    1.15743900332388   -0.34352017214392
C         5.55587968604716    0.92076721567309   -1.76199387568181
C         4.08847802437996    0.61693144141168   -2.02902520782436
C         3.43642981726059    1.16313515861605   -0.75807964196117
C         2.75672910509114    2.54200660379767   -1.00353123286392
N         2.43113210735434    3.38569815961919    0.16478073884598
C         3.50029574123177    4.16863142946734    0.77500577219120
C         3.83006960529434    3.62680337404484    2.19509233154765
N         5.13163744212963    4.18250149528042    2.63691345337810
N         2.58230590971049    0.13961255727994   -0.14057596653068
C         1.35690660622362   -0.35182985883150   -0.50194761153183
C         0.69422568269317    0.23418046569632   -1.72361790735687
N         0.68007701278965   -1.18168711789565    0.21915959754379
H         2.81942680874766    2.09690996944067    4.33747841280106
H         4.58441172202226    1.78481574455354    4.17947103903907
H         3.36799858138726    0.50749652724455    3.83052937579889
H         2.61045720032942    1.79821785953409    1.87922501091295
H         5.42678351868355    1.41723607514430    2.00425160870033
H         6.21214731034700    0.12081119897237   -2.12558622904779
H         5.91969523699718    1.76042210599770   -2.35836406384539
H         3.89789351007696   -0.46263810591512   -2.00137727269151
H         3.62216636487607    1.09736331092108   -2.89860834879563
H         1.83324468445557    2.35423010744124   -1.56275692255553
H         3.48601794221715    3.03491771216701   -1.65886558483200
H         1.68170534527543    3.98144229288828   -0.18323159749236
H         3.16967278222975    5.20195762114956    0.94697990623578
H         4.40265989333421    4.07586966973902    0.15728808023753
H         3.04962844046606    4.05705334701347    2.83738263762650
H         5.95605778044882    3.89258232805227    2.10525976374086
H         5.31186288702468    3.81063766187768    3.56730121298516
H         2.86229202763462   -0.17409077340845    0.78327121007237
H         1.28630317336464    0.50513179586521   -2.59378400515249
H         0.18640687734441    1.13319576658193   -1.36250267600024
H        -0.00495335121195   -0.52961287055309   -2.07883176527066
H         1.25924391791490   -1.66905805542914    0.90476892387203
