39
 energy: -52.261856257378 gnorm: 0.128731333645 xtb: 6.4.1 (79825abcba525fcdf90b791dcacef51065a7a4e7)
C         3.58786352700158    1.26429962381511    3.48616639855494
C         3.62969336765095    2.05086918352159    2.16948491029512
N         4.71010134300117    1.52509562020974    1.35317704348161
C         4.76601770507741    1.34520582279771   -0.00417908104649
N         5.90480492184752    1.08064706052380   -0.57288701026161
C         5.56531757871775    0.84281076993240   -1.97466366620099
C         4.06904833334787    0.56967541413131   -2.03352759532621
C         3.44775524219125    1.20832401294631   -0.79057512730925
C         3.00976746134788    2.67029377352701   -1.09771863413433
N         2.57834474599285    3.64593312793603   -0.07557187670502
C         3.61784014002866    4.16202869833104    0.80848958016699
C         3.49898056339837    3.59934318579032    2.25356109978114
N         4.55405476164895    4.31828957686947    3.00723189182179
N         2.49498236440846    0.42379328770434    0.00640185950376
C         1.31642453741931   -0.21832603016032   -0.26265723011209
C         0.52395824004590    0.15197448116683   -1.49144001044123
N         0.99647333523644   -1.21737839377517    0.48986026472731
H         2.83851433772593    1.69214155766884    4.15748236045077
H         4.58875591697507    1.26990243596844    3.92753206493706
H         3.31663229865999    0.22287060209903    3.28697512569226
H         2.74135983464920    1.78632304038495    1.59085196777014
H         5.58967719692009    1.57589177923136    1.86381960945817
H         6.11970876305042   -0.03883744989488   -2.31841219810627
H         5.74053903854952    1.75942806488971   -2.54224596532558
H         3.90196154008761   -0.48416674304376   -1.78043475204371
H         3.59161560409844    0.72366788942888   -3.00963234194544
H         2.21182184295010    2.45977978233015   -1.81867876908897
H         3.78811719553050    3.17103394560951   -1.68739451840586
H         1.88289645951851    3.20676713242954    0.52538489169189
H         3.51237649969068    5.25533992043320    0.79443062905583
H         4.66390052221585    3.95505465557190    0.54895080255432
H         2.48848800265016    3.88554171198635    2.57564101684591
H         5.42981417338430    3.79038825149539    2.97996820730907
H         4.24633102072243    4.41463021770847    3.97284562662184
H         3.01365442065243   -0.02363146351706    0.75545860699625
H         1.25390138779675   -0.02264708481618   -2.27747419473918
H         0.29744095261102    1.22211292652549   -1.48893306911904
H        -0.30049470375684   -0.54413151525459   -1.67616209484582
H         1.69554309531032   -1.49563571884234    1.18043916288138
