39
 energy: -52.270087677404 gnorm: 0.104280736897 xtb: 6.4.1 (79825abcba525fcdf90b791dcacef51065a7a4e7)
C         4.23645996106994    1.31667599614094    3.39912388589183
C         3.83198357911676    1.99195504152581    2.08212403011118
N         4.95503501740953    1.96058798354872    1.16133668160275
C         4.92568619661875    1.33786081177814   -0.05901250589221
N         5.93410958847279    0.70697242615034   -0.58372049853796
C         5.48326610201060   -0.02456874052827   -1.76625304323582
C         4.13003068039922    0.57457282686455   -2.12216429784827
C         3.59729483411266    1.18522417902438   -0.82520421932647
C         3.09144060343458    2.63903051742316   -1.05776526172616
N         2.34128283114727    3.33007408714549    0.01111443543034
C         2.98491128303293    4.13757971235804    1.04171961873860
C         3.30277190406490    3.42349604046831    2.38634722910550
N         4.07082565464547    4.44478486891980    3.13811029228152
N         2.74316506958065    0.20562704882525   -0.14015768789700
C         1.41225991667884   -0.01690616312803   -0.37011205012076
C         0.67470873866868    0.64870798933280   -1.50501666172981
N         0.66458427361803   -0.77960156056696    0.35516985434981
H         3.50186192326122    1.58738253070354    4.16222397393200
H         5.23169547771036    1.63502971776788    3.72281786830257
H         4.24061680219749    0.23516586535803    3.23138447937205
H         2.95196702044019    1.58062396735393    1.58180931899034
H         5.81130390386681    2.40431202451962    1.48829589463983
H         5.43602843353380   -1.09422699490982   -1.52873242872612
H         6.25218714725445    0.15304622068002   -2.52140391691030
H         3.45280697389239   -0.22891492622374   -2.43574483561243
H         4.32340267770457    1.36005203397019   -2.86382855590547
H         2.37839223297206    2.55288212416048   -1.88538675652708
H         3.98331194818141    3.23890763423474   -1.27912385468778
H         1.55018415916292    2.76951602098671    0.32352709471892
H         2.35502265181594    4.99568857295879    1.31290065743502
H         3.90202143263577    4.55514613489753    0.60699187768222
H         2.40269736100308    3.12320874907388    2.93991172052690
H         4.99348842281400    4.62458521515079    2.73469621815592
H         4.15384513107329    4.18653357700971    4.11933368190615
H         3.13910179737544   -0.34622797400444    0.61415375022886
H         1.20370261894139    0.77427177936040   -2.44605790819207
H         0.38604909134251    1.67512955747553   -1.26078925341324
H        -0.26484081376851    0.12601183387784   -1.71103566859823
H         1.16659932870271   -1.14890603117230    1.16425574367245
