39
 energy: -52.265702435196 gnorm: 0.126071438210 xtb: 6.4.1 (79825abcba525fcdf90b791dcacef51065a7a4e7)
C         3.80476655882295    1.76303349019508    3.82282518437331
C         3.64581820741275    2.25146570207986    2.37705170774131
N         4.58834422484491    1.38997479422256    1.68455197255304
C         4.70843813301290    1.11792103724288    0.34684242920133
N         5.84396579650259    0.68905851663777   -0.11889379382724
C         5.67972978671929    0.60744870221032   -1.56912202279400
C         4.18974741947772    0.49077122299736   -1.85761542394888
C         3.50268706682922    1.04866324699580   -0.61041354600752
C         3.17254170417345    2.54979193499461   -0.85768409093192
N         2.23986804563931    3.22969840317616    0.06461128082983
C         2.73790792172209    4.21074541323377    1.02272035868750
C         3.78227323894257    3.77484592004488    2.08961631299251
N         5.18123829736586    4.09276393170460    1.71557080991205
N         2.38233381620300    0.35342786002618    0.03757818375172
C         1.30821523498730   -0.19099365770352   -0.61325440177024
C         0.65011029314830    0.62898037374991   -1.69472234082336
N         0.65993943384493   -1.24411135187226   -0.24252729947090
H         2.91696028908292    2.07934937304957    4.37688505340834
H         4.66939254853301    2.26217057146609    4.26993220853312
H         3.91224370913328    0.67854180317109    3.92354455376998
H         2.70215734746642    1.93940711043931    1.92311248034966
H         5.55341206031888    1.47240515588288    1.99893880390000
H         6.14416761400145   -0.30006254016717   -1.97351919085773
H         6.23150011116280    1.41389446554473   -2.05721445677145
H         3.87654647375500   -0.53175201738277   -2.10032645560598
H         3.95315318172994    1.07257611777303   -2.75759453885413
H         2.72699410529576    2.61977248685918   -1.85638670871779
H         4.03029105518522    3.22981410246976   -0.77943717561393
H         1.49953386669536    2.60888659406777    0.38735285546883
H         1.85261308767848    4.60485180394055    1.54000448461557
H         3.20786249716123    5.03622178448749    0.47301825004346
H         3.65922294059729    4.34677887726783    3.01939671522954
H         5.39158412739979    3.72701744028753    0.78371148594707
H         5.68043414565750    3.74091163998565    2.53005762700441
H         2.66394253034642   -0.22288293850533    0.82425347124423
H         1.37174443794098    0.75027049342660   -2.49827214829864
H         0.34664424399551    1.61483582241510   -1.33070304140612
H        -0.21797801359975    0.04451235181677   -2.01601394080191
H         1.19235141703340   -1.79423758596095    0.43343386186030
