39
 energy: -52.265980552580 gnorm: 0.107703354511 xtb: 6.4.1 (79825abcba525fcdf90b791dcacef51065a7a4e7)
C         3.51919551668200    1.48450243559340    3.64801265556203
C         3.57888954620582    2.06247758849463    2.22798698365964
N         4.64529297674921    1.40573327739382    1.49208725134854
C         4.72616303629163    1.40140586554921    0.12411651393921
N         5.86673261385449    1.47279200342275   -0.49577172402835
C         5.61443111402147    0.97054633675041   -1.84517484845971
C         4.15189130759615    0.57174128854886   -1.98236592977373
C         3.47666029068084    1.17128797772819   -0.74809901029137
C         2.88846213666860    2.56125728860724   -1.12958851601829
N         2.50444549063875    3.46888671523890   -0.02889702806720
C         3.58864308820757    4.07206182633742    0.73867403235288
C         3.62671125019437    3.61799499686091    2.22573436026838
N         4.91415873435318    4.11803739031080    2.76473503837833
N         2.58868641612486    0.16813144144063   -0.14509298655933
C         1.30197979974897   -0.25243652809659   -0.34811315387251
C         0.55357732755083    0.25868216089140   -1.55380126525848
N         0.63582097656907   -1.11991925146221    0.33778997104321
H         4.41653997515603    0.96296589190545    3.99153937450380
H         2.65429470672515    0.81507699878794    3.66891232731608
H         3.40287862770037    2.26785580950037    4.40342368608394
H         2.73243811048210    1.64609660496497    1.67654880982617
H         5.57159085429159    1.56469974770553    1.88412255097692
H         6.24558664732881    0.07364675912910   -1.85065806771680
H         5.98139362613419    1.57845507451336   -2.67512964842704
H         4.12300317270822   -0.50742894313247   -1.78971505285092
H         3.73968033196891    0.80342939254946   -2.97273904590225
H         2.04198495328618    2.37086605223116   -1.79894971482175
H         3.69691357724602    3.13164359945266   -1.60430148489381
H         1.84888436913995    2.95366279113582    0.55629358583254
H         3.40562978339928    5.14859983074559    0.61941917557122
H         4.55119424756861    3.80608679744156    0.28348889677717
H         2.87713801914602    4.19625774958338    2.78295285131587
H         5.65305379962533    3.50341856909268    2.41451303187740
H         4.92924624430708    4.06191660055204    3.78110511361926
H         3.02149895994740   -0.29547116166981    0.64739772651976
H         0.05343088288536    1.16201611723988   -1.21468370509407
H        -0.20861208256167   -0.44826770434679   -1.89409796387283
H         1.12489667758631    0.55536902308849   -2.43922746724633
H         1.06091809528210   -1.46891562591267    1.19832401759648
