39
 energy: -52.261070985121 gnorm: 0.126192756429 xtb: 6.4.1 (79825abcba525fcdf90b791dcacef51065a7a4e7)
C         3.59766334471520    1.57571566261681    3.69232752819179
C         3.55811729671791    2.05401160690484    2.23501471249580
N         4.62206565757405    1.41308495857689    1.48181842081305
C         4.77547745875004    1.19923441111839    0.13696327978040
N         5.93948989475782    0.96476728823092   -0.39252379828421
C         5.74211567038184    0.83796118755105   -1.83535406202681
C         4.25891176240113    0.57541783307832   -2.05459521929786
C         3.55856187159191    1.10939667775088   -0.80432141799081
C         2.97455131975209    2.50600035438154   -1.16757864611393
N         2.41246479542614    3.36367106445772   -0.10398032823525
C         3.29531305525554    4.12369015118502    0.77432479705972
C         3.59324607656254    3.60969418501857    2.21168985913021
N         4.90189926050392    4.12730959419511    2.67815128894228
N         2.61125556726465    0.26080453290221   -0.06883582297829
C         1.34697113952050   -0.16158540986976   -0.38009162546978
C         0.44313543073663    0.40200125859225   -1.44802584388271
N         0.69529597074101   -0.99016018436827    0.36525412806579
H         2.63864113466756    1.87092633072753    4.12633802394998
H         4.42684006641443    2.09270998664332    4.18406267249681
H         3.71976408641338    0.48813352106609    3.68369944759391
H         2.57345306824552    1.73908119113836    1.88118935189740
H         5.51597884296411    1.55889943718468    1.94727208368387
H         6.21411887543277   -0.11710370428414   -2.09589244464350
H         6.24687481382125    1.69256681437735   -2.29132216851406
H         4.14709167106898   -0.51471847614282   -2.09529355359394
H         3.81805384770854    0.97990823035064   -2.97463216867525
H         2.19830376789091    2.54563464140228   -1.94003298261046
H         3.68105937688958    3.16450682323927   -1.68863743585037
H         1.76739007979367    2.71786020458992    0.34820444845698
H         2.72529452762375    5.05190516602750    0.91625937215979
H         4.23855128144459    4.26348187382557    0.23100088581892
H         2.76410149294451    4.02388652217193    2.80135437843608
H         5.72614268903900    3.68515159453970    2.26402964516427
H         4.93513700948373    4.24342748973870    3.68899113210192
H         3.17893812512707   -0.43244559847664    0.40806708796364
H         0.83247619781183    0.19132452335452   -2.44059246642520
H         0.40375057087791    1.46923773279621   -1.21145069052648
H        -0.59242224101326    0.07692530083453   -1.30535701635781
H         1.31563440815138   -1.33486134146026    1.09968330889100
