39
 energy: -52.268141520624 gnorm: 0.118436514578 xtb: 6.4.1 (79825abcba525fcdf90b791dcacef51065a7a4e7)
C         4.01397686684338    1.50887351933882    3.70746954744432
C         3.69091209499348    2.11563932787119    2.33577135406917
N         4.73584569554894    1.75118873636876    1.39483179285142
C         4.68083363390974    1.27141948759610    0.11237410859637
N         5.77106593747541    0.99976735825839   -0.54173214163500
C         5.46742447669447    0.55347424931399   -1.90019445508755
C         3.95080350427981    0.55183749225787   -2.02960726555065
C         3.39791913720107    1.14213337477905   -0.73165595052194
C         2.93159824175870    2.59070534444169   -1.05984806454342
N         2.44699298317922    3.46141433302157    0.03093389702622
C         3.32109116392916    4.20663281460924    0.93041804460065
C         3.55330196886702    3.66542132270904    2.36991188513096
N         4.74058424093110    4.35459779647242    2.92980627208010
N         2.46856504498311    0.32243249547460    0.05753882124346
C         1.41173907242630   -0.29377694608503   -0.55655675818083
C         0.67857455060905    0.28531544669771   -1.74068269118969
N         0.84591457630376   -1.33081223552872   -0.03582895904754
H         3.43979898369560    2.15120899180214    4.38049476811234
H         5.09596995027088    1.54421937685023    3.86451174787604
H         3.69677525619590    0.49225323316387    3.95982697647408
H         2.68036397381506    1.89897362676467    1.98110861744661
H         5.68655509004946    1.67757782053698    1.75221510119228
H         5.83603047652276   -0.47886697368203   -1.93508621700644
H         5.96101201363142    1.15600096970372   -2.66594400727326
H         3.59584057914711   -0.47022482215853   -2.20834507337740
H         3.59196079194126    1.10966957239364   -2.90395928479313
H         2.07431585761590    2.53387719319314   -1.74003504399331
H         3.72835407492281    3.04887920331425   -1.65946755105621
H         1.63508889386142    3.14811552699330    0.56038618477387
H         2.90791563183245    5.21695441538283    1.05364911189696
H         4.27368602489958    4.18661807006468    0.38580498114926
H         2.74566769527659    4.00762892914294    3.03124471175887
H         5.63491647289386    4.04789577641291    2.53931761422369
H         4.68499103992177    4.14419998941046    3.92430487071264
H         2.92645181778885   -0.16795510569402    0.81921809854604
H         1.45445327116493    0.24409009997293   -2.50059855019209
H         0.28051285266841    1.30135967757803   -1.66509391007134
H        -0.10230769604800   -0.43907440034066   -1.99344886237478
H         1.39216304586516   -1.66233942460499    0.76086873801460
