39
 energy: -52.270107155314 gnorm: 0.118682635718 xtb: 6.4.1 (79825abcba525fcdf90b791dcacef51065a7a4e7)
C         3.98422578980374    1.44488079681487    3.67469919520284
C         3.70844338486583    1.94777951401419    2.25162909891870
N         4.86325590112285    1.58341963680574    1.44930267264732
C         4.84974990658305    1.23280837074488    0.12461707638303
N         5.99051711877024    1.03320041950534   -0.46619862303821
C         5.73898678862793    0.74121636762252   -1.87626009302762
C         4.23995458822623    0.51932324732224   -2.01963178406817
C         3.59541644150025    1.10197845220630   -0.76110428762362
C         2.95298247390168    2.47215865402287   -1.12635874207001
N         2.31283179137155    3.30059383499704   -0.08391739436997
C         3.17737427017448    4.04175961803495    0.82806372037001
C         3.47559476002491    3.48651440542668    2.24994331085838
N         4.56868812208699    4.30208094765595    2.83139258838585
N         2.53049425854734    0.29943329349735   -0.14442047266069
C         1.19329359945963    0.06162691381651   -0.31486419946287
C         0.56872727970213    0.35687103402913   -1.65567747395543
N         0.41998933629168   -0.58277455824251    0.49353188216847
H         3.29387520731683    1.92286109204725    4.37483415416676
H         5.01808000916801    1.36350363651802    4.02275641435420
H         3.62745787324906    0.41536052480843    3.77776526346725
H         2.80337686065855    1.59504430767994    1.75125956945229
H         5.76845228784728    1.49515231574436    1.90736177325817
H         6.34845201527951   -0.10766823435876   -2.20907128380731
H         6.10304580148828    1.58500294261424   -2.46661993205267
H         4.07173136105170   -0.55824850756195   -2.13407530315226
H         3.95414090296397    1.05230247931523   -2.93542644058731
H         2.19795493809238    2.26045234215531   -1.89181985735058
H         3.79069863856121    3.06494028939749   -1.51511090053383
H         1.55016103609070    2.77458398628163    0.33953400128242
H         2.73711673102010    5.04779470062605    0.80129856707618
H         4.17603870245952    4.09754442490090    0.37640194077170
H         2.64612238793741    3.56904826341577    2.96541800254211
H         5.32989727690614    4.23825757100348    2.15105086150176
H         4.80537485534992    3.92935636231918    3.74869356362939
H         2.83998075077610   -0.20586524632091    0.67970761662965
H         1.27135989197640   -0.04404298229091   -2.38144244202543
H         0.34252382603872    1.41371958971820   -1.82424729254272
H        -0.38064367800744   -0.15842311093244   -1.83337156512487
H         0.89627058283712   -0.80823903748628    1.36837291117145
