39
 energy: -52.263972086287 gnorm: 0.124276240700 xtb: 6.4.1 (79825abcba525fcdf90b791dcacef51065a7a4e7)
C         3.82013189420847    1.82270647432875    3.94134616003023
C         3.63261287267332    2.06137669960342    2.43736321917331
N         4.65220819311681    1.28848202821270    1.74951369838373
C         4.72691445506589    1.17914082251754    0.38556132931488
N         5.88859593385060    1.04363632456884   -0.18223354975262
C         5.70628984201877    0.66812871080187   -1.58314541686402
C         4.20563952283829    0.47481340726951   -1.74917956136543
C         3.53243707346812    1.20745094058368   -0.58778011371792
C         2.98230039367804    2.62800837903723   -0.90854822511141
N         2.07327710217867    3.16556097613338    0.12464854195624
C         2.70744570597871    4.10760014723012    1.04054282775069
C         3.78170033975969    3.55289150044891    2.01893413906941
N         5.14191301666816    3.88777675190700    1.53338447747664
N         2.46137464580842    0.36626824077695   -0.03671396835863
C         1.39244044255919   -0.12843267689998   -0.73410859260174
C         0.58466068931239    0.84208173355950   -1.55910925335344
N         0.77789474496455   -1.22699077555902   -0.44729736849643
H         2.93459300022759    2.25805558124885    4.41201597130368
H         4.68535675316566    2.32458737679905    4.38420293129238
H         3.86235389442805    0.73879079240733    4.08681796795695
H         2.66447148168054    1.70870775021929    2.07368196119646
H         5.55464387937671    1.23598104966926    2.21838812840082
H         6.45417648524120   -0.11642654130733   -1.75034241705289
H         5.95637764323985    1.60175236887375   -2.09191102567190
H         4.04616342207103   -0.58386227261004   -1.51183920319603
H         3.77327876918462    0.67403902748585   -2.73802206699508
H         2.59211490401492    2.62236821396455   -1.93253080414358
H         3.85620686587942    3.29135735669147   -0.93183522183839
H         1.47190386382646    2.46661793630522    0.55765313248061
H         1.90816674755825    4.47944878974105    1.69592927335538
H         3.08399365259947    4.90831741408620    0.39130908529043
H         3.64847240592085    4.15487102353371    2.92811577724944
H         5.31376838524522    3.41757439621336    0.64133451231956
H         5.94176055320691    3.49192733835403    2.02321348967562
H         3.00022993887540   -0.36711395820447    0.41282041021306
H         0.43423998402790    1.78254359633256   -1.03559753269665
H        -0.36913134190279    0.37711510154914   -1.82481483210504
H         1.17485526302434    1.16304624327270   -2.42343593767106
H         1.35738261365578   -1.77487986849163    0.19069654886898
