39
 energy: -52.271627965859 gnorm: 0.101858680452 xtb: 6.4.1 (79825abcba525fcdf90b791dcacef51065a7a4e7)
C         3.76236488616206    1.47039606641408    3.63383181520641
C         3.57267314850832    2.02210760593974    2.21477474317705
N         4.74246535556841    1.59099777766108    1.46924924583080
C         4.79218706712685    1.29573878861458    0.13199366659811
N         5.94011257217309    1.12290782511031   -0.45337190590976
C         5.71355673679763    0.88785444688382   -1.87822905896345
C         4.26667771503684    0.42060258528728   -1.94968767978015
C         3.55940334376022    1.08734432043310   -0.76899872907796
C         2.95558246967236    2.47015623680178   -1.15208817399255
N         2.42070777258621    3.37345774247316   -0.11250309965897
C         3.19175741309773    4.20692589795385    0.80362092796395
C         3.43114419166556    3.57186829642642    2.20303869258607
N         4.58635305710728    4.26377412735353    2.82339660514971
N         2.66008171887094    0.11623285453989   -0.13134674282899
C         1.33633407564236   -0.17453720875425   -0.32331939531767
C         0.70517446066724    0.38445508978810   -1.57399823952354
N         0.61896401857169   -0.98143983204939    0.38452615599739
H         4.84215907542577    1.52298633856016    3.79667168387895
H         3.42232501046599    0.43131475457833    3.59772735312981
H         3.06572268574571    1.91159881456053    4.35344819148010
H         2.71520406112696    1.59347919262533    1.69040688504706
H         5.65435890150219    1.59072347145729    1.92250396758416
H         6.43291313819251    0.16303510471725   -2.27820344249934
H         5.88899593254193    1.78158872170989   -2.48113835798351
H         4.35765482895598   -0.65991035570753   -1.78606551211316
H         3.80570070456443    0.75497028556804   -2.88784258046619
H         2.11946604974235    2.33123202356964   -1.84665728057043
H         3.68697531825829    3.07182472101730   -1.70647630512987
H         1.63560257373020    2.94175420454717    0.37216792415341
H         2.61575676368168    5.12286937235311    0.99314786454855
H         4.20895110004876    4.39777015242633    0.43846832693326
H         2.59799005827609    3.91729481944881    2.83015510135445
H         5.51392784579870    3.98361921483179    2.49553093151221
H         4.44984084541306    4.17128182480618    3.82798353296029
H         3.07071488182712   -0.40636121750049    0.63583735930741
H         0.29242456899226    1.36097070096604   -1.33480331630581
H        -0.18412365315882   -0.16763811769195   -1.89157439049103
H         1.45472076126737    0.38772658532029   -2.37185668968635
H         1.14774729152239   -1.39247563502456    1.15554022941913
