39
 energy: -52.262223062094 gnorm: 0.112167262407 xtb: 6.4.1 (79825abcba525fcdf90b791dcacef51065a7a4e7)
C         3.72749608231800    1.80091155654698    3.92973258985003
C         3.67656209147274    2.09812355050269    2.42535154801540
N         4.63471492346896    1.27122430920095    1.71242899384075
C         4.76971695349499    1.14220431567681    0.35484624330324
N         5.93118719066792    1.16354705169285   -0.22892404552836
C         5.64161284830129    0.93578801780029   -1.64351517967776
C         4.20484673934252    0.47001087489717   -1.83231230591088
C         3.56131059305815    1.10917386229822   -0.60099597351334
C         3.25089938503050    2.60127338593042   -0.91850174863734
N         2.29404348873953    3.16528742728319    0.05571418279905
C         2.69997601574281    4.02738559826217    1.16046551200641
C         3.79949131519560    3.63103282315375    2.18659652904421
N         5.12166094897712    3.97671781774946    1.61174481766307
N         2.47348665967148    0.23411790190853   -0.14344479167134
C         1.24964453871893   -0.16472082250594   -0.60911279041518
C         0.62718360269310    0.70583405991470   -1.67199048517660
N         0.60824742570705   -1.21373899129115   -0.21550437104742
H         2.72693557296670    2.12218568271293    4.23122828767768
H         4.61209848476564    2.26140787259652    4.37922380622313
H         3.77304682293163    0.73192756225973    4.15998528112938
H         2.70237242617413    1.74371054849362    2.07997764885830
H         5.59070776357260    1.30771716249552    2.06133547973430
H         6.33927394221341    0.16890935540669   -2.00126137645807
H         5.82971079027035    1.81104139076666   -2.26928685591607
H         4.01198031397593   -0.60797301518761   -1.77477494353523
H         3.77860720948500    0.80989040898696   -2.78480269985196
H         2.79648439633224    2.63979363347575   -1.91491535412355
H         4.22716881126239    3.10243873414159   -0.92274243162961
H         1.72790267150267    2.36488463080436    0.33230787496842
H         1.77549302130950    4.26117237222762    1.70574030600845
H         2.92544638275645    5.02080922800560    0.75215979170703
H         3.61879878590313    4.13258010420590    3.14708641514347
H         5.24392897782752    3.39062490554977    0.78233340364236
H         5.91272690098411    3.85184017773496    2.24023947875112
H         2.70820608772954   -0.45706617963314    0.56186859202219
H         1.30529604754959    0.72528752233126   -2.52107499105333
H         0.48718979182284    1.76924142016289   -1.45732989031775
H        -0.40205840590956    0.44056709723830   -1.93410264880780
H         1.00681251318874   -1.81336573169343    0.50880117242289
