39
 energy: -52.256417028932 gnorm: 0.113086633131 xtb: 6.4.1 (79825abcba525fcdf90b791dcacef51065a7a4e7)
C         3.97076152425953    1.79204747898024    3.86592014859582
C         3.62648464452268    2.02901311741602    2.38963688113337
N         4.62813019599420    1.32231459282893    1.61030308641233
C         4.66985109200258    1.27201083282175    0.24149648006568
N         5.80651565765473    1.35123282058985   -0.38458172520043
C         5.58655197194680    0.96603127326300   -1.77743178703031
C         4.12904181641525    0.55377308419252   -1.92775437220439
C         3.44608172251818    1.12240548324880   -0.68315375308447
C         2.89797924620726    2.53867252864590   -1.02564075431099
N         2.30273643428471    3.34367347006837    0.06084034907502
C         3.11685135213335    4.17808675556635    0.93801840075516
C         3.63441372639899    3.58121879300699    2.27773930549627
N         5.03501149243113    4.05325324624995    2.39433486044314
N         2.47285820774285    0.16252983295594   -0.14471929012205
C         1.24364237752964   -0.23940560026641   -0.59325571379716
C         0.77092042571737    0.26448215929868   -1.93402545910940
N         0.58191013252278   -1.12333457892328    0.07572633160231
H         3.28130025277258    2.44800917179082    4.40406089848976
H         5.00270574478961    2.06668319942398    4.10316889932505
H         3.71291362587014    0.78375106832982    4.20455086593927
H         2.65926742085564    1.66221083267928    2.03766509735014
H         5.51886871132493    1.39890972115074    2.09785600628794
H         6.13352466797235    0.08126301890957   -2.12502670790049
H         5.79009792032419    1.86782178244757   -2.35913825680725
H         4.22251441226690   -0.52268916480700   -1.74054011621844
H         3.75430474991531    0.68256966687640   -2.95118963901092
H         2.10625571174852    2.43232845848420   -1.77576184110666
H         3.71015572295779    3.13623714633029   -1.45873725004595
H         1.53664106968145    2.87542802140959    0.54199335563760
H         2.60666479628079    5.10092984420266    1.24578450182206
H         3.99972434192076    4.58453131185346    0.42833314534781
H         2.93069925868448    3.79508229365146    3.09369803028567
H         5.59792773390951    3.54705495604794    1.70639135786326
H         5.38104318029912    3.68141218526550    3.27659423449768
H         2.81625578345754   -0.26399523123115    0.70994443846886
H         1.63437556664088    0.42121341597756   -2.57514943956373
H         0.26984155572858    1.22295485588300   -1.77043231692212
H         0.17432884185737   -0.51151912620083   -2.42423863052225
H         1.03453140441003   -1.61037435060835    0.85093670708704
