39
 energy: -52.258079357505 gnorm: 0.125559113628 xtb: 6.4.1 (79825abcba525fcdf90b791dcacef51065a7a4e7)
C         3.84349322775758    1.63956906475056    3.88751553243172
C         3.65781551512456    1.90611981156144    2.38799359878045
N         4.69195034433335    1.17446358670704    1.67713349796509
C         4.76253322102267    1.16319455985375    0.30863297946989
N         5.88617905557208    1.25618470685364   -0.33869169205593
C         5.66276772282286    1.03409398558601   -1.76612247163589
C         4.25670889640976    0.45322994341304   -1.81597304630152
C         3.56166417781392    1.16945653517982   -0.65720634250042
C         3.10883922779318    2.63196391040969   -0.93924839000135
N         2.06821747952853    3.12309840892511   -0.01260121603198
C         2.61114712416333    3.88969870081741    1.10365204919293
C         3.68734510110517    3.44105156060323    2.13296634283180
N         5.01143193215040    3.88950779854041    1.63923949310501
N         2.53011515487335    0.33159244911100   -0.03084597084479
C         1.24550340333907    0.12095735795493   -0.45406466576680
C         0.93628628187688    0.45258410323164   -1.89261980522017
N         0.41446470600398   -0.54056969372268    0.27977020197280
H         3.13443212503457    2.29334373750979    4.40234470598348
H         4.82396313217616    1.74675662980582    4.36060136604523
H         3.55825614432408    0.64160358592353    4.23467926204956
H         2.68465309204576    1.63092333192638    1.97427993338968
H         5.60562538351995    1.29949939249533    2.10905216278641
H         6.38095485934287    0.25087669986855   -2.03740487204248
H         5.78893067215346    1.93707939973784   -2.36757050553827
H         4.27838162903562   -0.63872122243019   -1.71733127668027
H         3.90117781958640    0.78924765867476   -2.79838127381540
H         2.61652002846369    2.71394698247983   -1.91480844972922
H         3.90751216744524    3.38408343241681   -0.91233333203786
H         1.52304976279730    2.33830241604655    0.34031737924555
H         1.72927048882903    4.27466061550409    1.63350823802527
H         3.17398823875713    4.73287642075462    0.68329248185478
H         3.62670559359647    3.92965425021823    3.11496967378086
H         5.21848434268871    3.53508136047054    0.70228225669446
H         5.76960389064425    3.47302587676628    2.17599213010559
H         2.87836698126788   -0.06657172490472    0.83545741587136
H         1.63491727295198    1.15277533837174   -2.34296011086153
H        -0.06377297017755    0.88593841611099   -1.79989335536420
H         0.90039537452218   -0.48536106387677   -2.45598396045699
H         0.86449499632502   -0.90587589237219    1.12063226110492
