39
 energy: -52.272707341521 gnorm: 0.110969958467 xtb: 6.4.1 (79825abcba525fcdf90b791dcacef51065a7a4e7)
C         3.81665726044627    1.46448747398029    3.62531477761813
C         3.66209867945899    1.99424573989103    2.19368654975394
N         4.81114268225372    1.53856788258487    1.43070992239337
C         4.82753477426585    1.24752618102148    0.09170707031895
N         5.91990633095054    1.11622469831961   -0.60092607095775
C         5.54097120854485    0.83796879158864   -1.98504216852704
C         4.05615391827747    0.51648345291383   -2.07913966758645
C         3.54954344147636    1.08978381800272   -0.75494915835783
C         2.97099414232129    2.48883169276766   -1.11753949783593
N         2.51887681252246    3.39551896297721   -0.04223032488110
C         3.47550313189298    4.06418761283349    0.83310863127289
C         3.43402228814799    3.53046469843903    2.29338034275132
N         4.37068565475684    4.36885437393019    3.07941445664659
N         2.61109885689214    0.18724088471780   -0.07437957916898
C         1.33657959183416   -0.22450795650898   -0.35681911924096
C         0.55975138868252    0.45519104990376   -1.45662802405294
N         0.74788983715001   -1.18611523248627    0.27207895978077
H         2.96729180103879    1.78993258882265    4.23186390549612
H         4.70042338926005    1.80357072586775    4.17358532894569
H         3.78826213691880    0.37068350287813    3.64990217918902
H         2.82527302594315    1.56785086068918    1.63525352737849
H         5.65391164918388    1.89988715134364    1.87363047168185
H         6.20830696083167    0.00021437919630   -2.22093782755790
H         5.83374032002479    1.74349510381810   -2.52109052207734
H         3.98474415122401   -0.57759663162900   -2.10027446002005
H         3.54318349726750    0.96756670451652   -2.93810499226928
H         2.15504369765776    2.50764128472803   -1.84876307621505
H         3.78254142937092    3.02073112208209   -1.63014136586973
H         1.66693354296196    3.04201311084237    0.39007789977107
H         3.35311298583463    5.15455553760930    0.78049588848534
H         4.51719042318256    3.92837122363375    0.51548865532844
H         2.41410648206344    3.70551425257646    2.66198539697180
H         5.04068431016370    4.80065772517795    2.43830188287009
H         4.99480290125168    3.89027826005405    3.72581051833255
H         3.16815895407934   -0.36041389881647    0.57373607464460
H         1.03544921067521    0.54853824951116   -2.42933419825750
H         0.37020281821829    1.44340269531264   -1.02765046327817
H        -0.39324376442656   -0.07419646575028   -1.55641561503657
H         1.31797580745547   -1.59796913953586    1.01262148414477
