39
 energy: -52.262844033660 gnorm: 0.117993081353 xtb: 6.4.1 (79825abcba525fcdf90b791dcacef51065a7a4e7)
C         3.69564075892573    1.34598026666016    3.60517578785790
C         3.72948214103459    2.08301192054965    2.25991349122446
N         4.85579237818521    1.54778237916962    1.51490856265742
C         4.79011766206287    1.30263081413079    0.16824968261345
N         5.89424552332409    1.15436657585690   -0.50195605986855
C         5.54734510321634    0.78669426601074   -1.87355101259601
C         4.06804174833186    0.42822670052403   -1.86633120923813
C         3.50230879515216    1.19730649840028   -0.67164695262228
C         2.86917316629360    2.53697525105643   -1.14909109450320
N         2.41216483676806    3.43801939057215   -0.07110938839518
C         3.48564501943613    4.00203800096948    0.74005845835159
C         3.61607272268391    3.63506405197202    2.24581176207206
N         4.74620789018264    4.42753997275812    2.78697860664749
N         2.49964091172287    0.37992399792730    0.02475803241225
C         1.32517597225173   -0.15352637199159   -0.43325001935634
C         0.69747796729481    0.37742944899536   -1.69781063686468
N         0.69475518751878   -1.07301759759000    0.21779721107663
H         3.87605697995739    0.27399866526019    3.48879933091785
H         2.67389550730748    1.38471187300206    3.99396509191252
H         4.17669743349687    1.86677245627845    4.43894908885781
H         2.81219803500613    1.84164216708604    1.71744900693296
H         5.78279277196806    1.62577868721500    1.92912661922155
H         6.17308830108898   -0.03786692497298   -2.23598792022544
H         5.81570891640526    1.64156131435795   -2.49822907452938
H         3.94526548088712   -0.65537496540988   -1.75104599591059
H         3.54548603703060    0.61390121407216   -2.81337750198906
H         1.97877283235002    2.27995806988164   -1.73385281971372
H         3.64294474127359    2.96489338224043   -1.79905286381700
H         1.66207150067420    2.89298103828522    0.35074048082165
H         3.34576466994045    5.08215131894269    0.88302129594007
H         4.44052962479133    3.79911098833456    0.23860360186963
H         2.74644602487358    3.91553352571269    2.85558759159190
H         5.60090069848163    3.92767356759501    2.53005168041358
H         4.76882378070731    4.31992676152983    3.79905233042094
H         2.81735002861504    0.03899731129311    0.92649276112174
H         0.22961613951957    1.32078714930013   -1.42884784271905
H        -0.14791736106156   -0.28622811780531   -1.90122655626100
H         1.35665003893870    0.26782489038654   -2.56492509521214
H         0.96325098479069   -1.32661040090141    1.16996609149598
