39
 energy: -52.268859128017 gnorm: 0.114072907885 xtb: 6.4.1 (79825abcba525fcdf90b791dcacef51065a7a4e7)
C         3.61627433128727    1.49857545009879    3.63434068870506
C         3.56144764594266    2.07003091112890    2.21148291398808
N         4.62836390189631    1.43938327166972    1.45382135932225
C         4.69664634554091    1.44000716332927    0.08515787162268
N         5.84826622620109    1.29874235434399   -0.50141887046828
C         5.57672865513764    0.85736282406181   -1.86825719315134
C         4.09403557387222    0.54988041784354   -2.02306457983629
C         3.45445910192616    1.19756145344041   -0.79413855640839
C         2.72508312280706    2.54689154717337   -1.06030577301726
N         2.38181797399984    3.29056198060009    0.16928970764001
C         3.54285351464956    3.99284876625394    0.70525586948476
C         3.68080920096036    3.62169920828322    2.20931388729916
N         4.81004783955581    4.22449999735604    2.95733557598542
N         2.54272548961153    0.37944265878781    0.01694738260582
C         1.40057619063200   -0.24584395980674   -0.40521394929586
C         0.85935230719187    0.04491523720950   -1.78273644228860
N         0.72259664306413   -1.05501516209008    0.33798365036379
H         3.20101110649920    0.48724245165188    3.63460373605936
H         3.19487691279801    2.16343162347792    4.39395315852510
H         4.61374326863588    1.39852786647718    4.07350369851097
H         2.60701162555779    1.80578108629654    1.74978916367253
H         5.54664419525153    1.45445133713541    1.89373500934986
H         6.14389565526181   -0.06288575616988   -2.05340676292345
H         5.96198936295676    1.57162459248841   -2.59931382496350
H         3.98799387518157   -0.54067369570169   -1.97829693778293
H         3.71281750040077    0.94166116959144   -2.97470358350234
H         1.78941291678664    2.43563004984298   -1.61973315709459
H         3.46066931168489    3.19730584716174   -1.55036788882234
H         1.72006696028919    4.04341544017071   -0.01226302728212
H         3.41898243740906    5.07975593023020    0.80494758901366
H         4.46261839284662    3.75743276044177    0.15475352616490
H         2.75900078324096    3.97404198151364    2.69187383231107
H         5.63330316840155    3.67313525073671    2.70312061670416
H         4.76364329299839    4.12209885313798    3.96913888053205
H         2.85499048319892    0.07089622239013    0.93214423314643
H         1.70016891991552    0.09370516688775   -2.46961808389782
H         0.24798540533493    0.95184137141932   -1.76763161312766
H         0.27618019391440   -0.84486245938709   -2.04083410914003
H         1.09609336338178   -1.07781740822059    1.28824947719100
