39
 energy: -52.267463356483 gnorm: 0.112861708312 xtb: 6.4.1 (79825abcba525fcdf90b791dcacef51065a7a4e7)
C         4.01953448584129    1.46661773165366    3.65879889012501
C         3.72240210476233    1.93283972614793    2.22756132953057
N         4.85973246937209    1.54561624988792    1.41109615157636
C         4.79606087604464    1.27263884567360    0.06970438198619
N         5.92158081906738    0.98841916476576   -0.51568472327974
C         5.70662395431737    0.61410431077540   -1.91227968214887
C         4.20290039315016    0.43659029326366   -2.06782311589498
C         3.56894247844730    1.10573875136022   -0.84751754852448
C         3.02908172894544    2.51284298422618   -1.23756122725699
N         2.54785171869918    3.39552860650156   -0.15494149430293
C         3.52725087607877    3.99499843843784    0.74499360578496
C         3.39459369970342    3.45387194080225    2.19708122945624
N         4.10128665236673    4.35337505529034    3.14024842349908
N         2.57931547450669    0.30262332289375   -0.11670913557864
C         1.25070856025627    0.04573539888751   -0.32291490257820
C         0.43011787083064    0.41491082847491   -1.53344075462581
N         0.56239862644154   -0.58821393689098    0.56652011754331
H         3.15310579693314    1.65546787692735    4.29823223225570
H         4.89361548790834    1.95980498142087    4.09396478700879
H         4.24309677551161    0.40357260059399    3.79211393592698
H         2.86932564790248    1.48106589033954    1.71560608977042
H         5.79891319664375    1.60208974607947    1.80063442109292
H         6.35208528987243   -0.24082652125563   -2.14741614058008
H         5.98053597702115    1.37031110629927   -2.65130808144813
H         3.85565989747315   -0.59123021281255   -2.22771778709757
H         3.90833690538676    0.97919818576553   -2.97515172568865
H         2.17413873954364    2.19567048354855   -1.84525437532428
H         3.84858282705547    2.98817928230010   -1.79142044855903
H         1.72345551460848    2.99757794212152    0.29190332829253
H         3.36154218822747    5.06605504123707    0.92395742302826
H         4.52599656569008    3.97095964008254    0.29071380591690
H         2.31962210133919    3.46740396322819    2.42289804874921
H         5.08795976117536    4.52615978665698    2.93288575481067
H         3.99459525857191    4.19132350536005    4.13961899723992
H         3.01946095363581   -0.36118153190992    0.51252109756473
H         0.96942550608644   -0.01490831787180   -2.37341825567038
H         0.33703492913418    1.50128378069379   -1.62085945968299
H        -0.55835032429513   -0.04871521216322   -1.45350336186041
H         1.24031536005906   -0.90330615291703    1.26234386470510
