39
 energy: -52.262992961958 gnorm: 0.125442901729 xtb: 6.4.1 (79825abcba525fcdf90b791dcacef51065a7a4e7)
C         3.97377399552534    1.71469194337922    3.94969023520288
C         3.60181236777449    1.99279259831268    2.48736464488768
N         4.62458367160542    1.30768048967403    1.71623687999140
C         4.70309360023513    1.22229271662925    0.35078906355346
N         5.85536297674793    1.00199630033137   -0.20956899197278
C         5.59650308495972    0.72820694574894   -1.62195225978053
C         4.11228471301230    0.55923819450722   -1.91424480432955
C         3.55124204609449    1.25366993769382   -0.67255093529206
C         3.06161476053612    2.71299960117371   -0.90524835282100
N         2.10909369446952    3.18777433501541    0.11948297505063
C         2.66686178191021    4.03603976019859    1.16724750100588
C         3.71790394373890    3.51571828496541    2.18879055497814
N         5.01543800230437    4.03062253024248    1.68942683460758
N         2.43278142465639    0.51792009639262   -0.06744351637370
C         1.38795371598314   -0.11064041314180   -0.68950086235378
C         0.71023223976680    0.53967602639764   -1.86967651287598
N         0.94797404291967   -1.23127902175662   -0.22329920080080
H         3.19295855287899    2.11972803803730    4.59892906416237
H         4.96504632997615    2.06977386827865    4.24619757967401
H         3.87571111939367    0.63916858065731    4.12703487216213
H         2.63064457869726    1.67508086753072    2.10028637685776
H         5.56653113272145    1.22070903595072    2.09327893591401
H         6.17151436274529   -0.17226020779896   -1.86961565676861
H         5.90166159366203    1.64692036606727   -2.12780147590394
H         3.84414713550735   -0.50250302701655   -1.97225412366981
H         3.78223435646165    0.97516943875319   -2.87471559459547
H         2.71335090211335    2.80912342368429   -1.93979625276959
H         4.00495110453728    3.26573575736044   -0.81098291641485
H         1.62431948227127    2.42720490819308    0.59297240503675
H         1.84530108885375    4.53815278653674    1.69599148165480
H         3.06523466626809    4.84882845951467    0.54667153288346
H         3.49529054927115    4.14457415021616    3.06155848749795
H         5.29783528949255    3.56210511871128    0.82506529464279
H         5.81652165767905    3.79978216346263    2.27368962256433
H         2.70456477790543   -0.06653788409783    0.71667274125752
H         1.12534323886979    0.48846325171914   -2.87278145751636
H         0.51342174578366    1.57457639627837   -1.57512682671017
H        -0.26826730837016    0.05627983509197   -1.95497144714853
H         1.48004621886593   -1.52676118395198    0.59683150755924
