39
 energy: -52.272193524172 gnorm: 0.104625858119 xtb: 6.4.1 (79825abcba525fcdf90b791dcacef51065a7a4e7)
C         4.21129274538718    1.28539360377006    3.56616558017102
C         3.78587999774149    1.99695775842697    2.27512258839597
N         4.89474798223931    1.75384125759140    1.36882025023418
C         4.87465682668534    1.42561037150579    0.03849568378061
N         5.93792006237733    0.86980040226786   -0.46230661824090
C         5.63546802262959    0.30296338387308   -1.77532379453734
C         4.18988689067107    0.64221968105505   -2.11012208603284
C         3.61478545068009    1.25524934205899   -0.83252240355383
C         2.96152092237788    2.64424750373816   -1.09224452567939
N         2.20321096336993    3.30125430208860   -0.00776779146615
C         2.98122998532346    4.07098071928486    0.95694854704176
C         3.36943189389078    3.49466532034645    2.34839891069269
N         4.30453864633071    4.43742248930971    3.00784521082880
N         2.61224062839388    0.39469821233850   -0.19003304789074
C         1.33490307473059   -0.04662937478951   -0.40762738025070
C         0.54066588443933    0.40999521857060   -1.60584008649388
N         0.72640491517372   -0.86523866365725    0.38380536898171
H         3.48559522016788    1.55539417144145    4.33798216874627
H         5.22927722651601    1.62574274436002    3.77709372225015
H         4.26947814520012    0.20677755532477    3.39004110394827
H         2.97728236165589    1.52196179371977    1.71433215748420
H         5.83996242180825    1.83031002897264    1.73991586067176
H         5.81587350895760   -0.77493754110159   -1.68367403924723
H         6.31920551961668    0.65511321318502   -2.55090939447947
H         3.72238915194495   -0.29279454653415   -2.44140975495600
H         4.12328395947750    1.40713855935607   -2.89427726363940
H         2.19941256406837    2.45042260293914   -1.85542184855533
H         3.70876644588965    3.33766141666712   -1.49855469010501
H         1.47218301260396    2.68562982557446    0.34474995974336
H         2.49344206863023    5.04558624578316    1.09426816237473
H         3.93539938065996    4.20171996222782    0.43072713744543
H         2.43538719034439    3.54191058754929    2.92465290289671
H         5.11668967753340    4.57651502557923    2.40167556974587
H         4.63804743232178    4.08000506556611    3.90082336224051
H         2.97779707880578   -0.07902508703043    0.62987568873068
H         1.16449943612724    0.35380868556568   -2.49400347125166
H         0.29541448785854    1.47494359013666   -1.55841250609212
H        -0.35986598029594   -0.19658831476762   -1.74550841439667
H         1.31049843481558   -1.33457838672746    1.07776492646066
