39
 energy: -52.262972075657 gnorm: 0.117502452761 xtb: 6.4.1 (79825abcba525fcdf90b791dcacef51065a7a4e7)
C         3.33792718828739    1.48502501876004    3.58332966279496
C         3.59109767367024    2.05612490518304    2.18195848579498
N         4.73347529557141    1.33822695309535    1.64374508423574
C         4.86540480411220    1.24994162973844    0.28260478563720
N         6.01598178724474    1.22728219902090   -0.32230471771941
C         5.71459063968610    0.86761408792819   -1.70671714520860
C         4.30972680349143    0.28401283254401   -1.75826045852670
C         3.63047989523615    1.03905302291508   -0.61486817566869
C         3.12688221293552    2.46516439333820   -0.98381493024054
N         2.24035920077914    3.20887568936603   -0.06525510808926
C         2.89263364704422    4.13184290717747    0.85731712224340
C         3.68167989549367    3.60705171178432    2.09059506488108
N         5.08751902153498    3.99111788788317    1.81820808849583
N         2.59371035177732    0.20985833135887    0.01440281584163
C         1.28924879878307   -0.00717737672020   -0.33912807816142
C         0.60992688550426    0.74072756749338   -1.45903536504813
N         0.51321398588372   -0.73735325180399    0.38982330787627
H         2.63474249605554    2.13170732820502    4.11490404875608
H         4.30769655891563    1.45734493898854    4.08870259568409
H         2.96885888442755    0.45468423821733    3.58543003073554
H         2.72478821211040    1.69880715228153    1.62002508642848
H         5.60777466204174    1.35608792684747    2.16554136645208
H         6.47680603461346    0.11079556682727   -1.92823382194454
H         5.96019650990454    1.66754302396757   -2.40873633246593
H         4.37720141989726   -0.79966161095066   -1.60446145064157
H         3.84810459179586    0.52612165079863   -2.72403705222286
H         2.65035237262860    2.42152666383153   -1.96963028255753
H         4.03581583558870    3.07923168522501   -1.01618323722578
H         1.55021031800719    2.67093755244890    0.45626306074831
H         2.22756995681654    4.98085440209259    1.06593022043591
H         3.65713456435671    4.66297968578147    0.27604866149711
H         3.37703764001513    4.14825376877002    2.99670416858521
H         5.55509755666821    3.32912777693070    1.19409506123453
H         5.50222182495890    4.22613963163518    2.71774778708928
H         2.95822765792544   -0.65533664754348    0.40022711118619
H         1.23246797117584    0.71271789190730   -2.34943834855061
H         0.41443517367324    1.78477835989669   -1.19778149156440
H        -0.32932586465425    0.20860505316817   -1.64085495508352
H         1.01514807163589   -1.32559394894445    1.05695143382497
