39
 energy: -52.267548265026 gnorm: 0.117160792782 xtb: 6.4.1 (79825abcba525fcdf90b791dcacef51065a7a4e7)
C         4.11511984044144    1.81604587133454    3.91083776001667
C         3.61663983519866    2.05669562858571    2.47986014187584
N         4.60760845549792    1.29774130654453    1.73686128429383
C         4.65090293276018    1.16899564964187    0.37324375699160
N         5.82204029119692    1.16096507996435   -0.19122871709566
C         5.69888431170768    0.73130991146900   -1.58299902260123
C         4.20401329177021    0.64534948995162   -1.85660635741628
C         3.48032818352246    1.19961295648490   -0.62864876339105
C         3.11863798454410    2.70627414381109   -0.77924181023393
N         2.04330899768853    3.17224283773714    0.12038169713187
C         2.48718449103218    4.01425539661910    1.22603054030143
C         3.67192229108169    3.57249492142206    2.13168958152178
N         4.96306261308646    3.96126818474059    1.51533160092615
N         2.47590294279870    0.27774587391650   -0.08117460184639
C         1.35289548122237   -0.20047001425833   -0.70074895184790
C         0.92750046342596    0.47860946434637   -1.97860753932014
N         0.53449775723507   -1.04184220665664   -0.16309202454847
H         3.53495780565762    2.26273450435321    4.72269940378475
H         5.12241638454245    2.23484800306761    3.99194922514014
H         4.20350239383467    0.72768783422046    3.98488680393614
H         2.60516156834142    1.67624382391879    2.31828866594642
H         5.48106497181485    1.11713329554901    2.22823102160038
H         6.18851225964063   -0.24412990726710   -1.69069234062119
H         6.18078330064526    1.38908342880996   -2.30973614849593
H         3.84934178932895   -0.38602564066463   -1.97075858059425
H         4.00054522428930    1.26246959527847   -2.74102690364579
H         2.60731073105114    2.85331643631331   -1.73722921270698
H         4.02288855549278    3.32711557298274   -0.81349809122209
H         1.52778000484146    2.37277841490904    0.48473128432531
H         1.65955724101996    4.28830136277234    1.89429815372472
H         2.73013600366755    4.95881290712683    0.72281425821805
H         3.66177031102395    4.22975033237128    3.01183306180701
H         5.19810880686908    3.36460193415618    0.71838722616515
H         5.75289536162632    4.03522349980482    2.15335992647399
H         2.81866333038801   -0.36986680164107    0.62125600049873
H         1.81497875294942    0.55511300690478   -2.60125424421099
H         0.58879905023086    1.50669679336893   -1.82103071549689
H         0.09769582312603   -0.10386316113473   -2.39159466687068
H         0.86533574600447   -1.58518496596118    0.63587590433066
