39
 energy: -52.270616210840 gnorm: 0.108063728925 xtb: 6.4.1 (79825abcba525fcdf90b791dcacef51065a7a4e7)
C         3.68263657137146    1.64124273754527    3.69953937406219
C         3.56239931648129    2.08262718346720    2.23502091144223
N         4.66116254060543    1.46422606822260    1.51364916848774
C         4.72286304380529    1.19199395405722    0.17201385400515
N         5.84118752364442    0.91918815916177   -0.43229046022021
C         5.54561706721330    0.59260993944381   -1.82612700352895
C         4.04036326277334    0.37754060427014   -1.89573807712347
C         3.45857703918145    1.14536073338715   -0.70797336178231
C         2.96846875933310    2.56241642774814   -1.12662958918137
N         2.52409756147392    3.45123650890973   -0.03332505144707
C         3.65299451733437    4.00781656615222    0.70442848410564
C         3.65080869922608    3.63623489244454    2.21469222483728
N         4.85651350040492    4.14601849378357    2.91073946160732
N         2.41718706670791    0.45196381926242    0.06218545732064
C         1.31600133890188   -0.17537974417212   -0.45505591650497
C         0.78911007618004    0.18030677920798   -1.82286626012526
N         0.49445082460111   -0.81371119797614    0.30936850783313
H         3.06027641549820    2.30184710202066    4.30905373809781
H         4.71894075721282    1.81782860561480    4.00204835944370
H         3.35521635794048    0.60197647971130    3.80220192552085
H         2.60999271147800    1.87802907837683    1.74004770590125
H         5.53011239486639    1.55385324108756    2.03698737016556
H         6.09095191449052   -0.31616152209471   -2.10819180823096
H         5.86458220134497    1.33008030105541   -2.56601766675214
H         3.84162276012035   -0.67054996719969   -1.64164038752072
H         3.54520408965805    0.56920939295326   -2.85621537620121
H         2.18246232267437    2.42506155797026   -1.87772504167600
H         3.68157721205265    3.16746578891709   -1.70080576129420
H         1.81529039315141    3.14192369883496    0.62968483350359
H         3.73932358880397    5.10236854095123    0.67047368519022
H         4.58894990215294    3.67562992052457    0.23743757806087
H         2.73120913972794    4.01801166229154    2.67872178670507
H         4.60117635562399    4.85421589408557    3.60329779812925
H         5.53827858959171    4.46098011441485    2.22343978501520
H         2.86616766752109   -0.14736297302667    0.74740034832305
H        -0.12484180979692   -0.33181395084804   -2.11197477367350
H         1.56018633633834   -0.06917432229803   -2.55751804414872
H         0.41373984615774    1.20553341859905   -1.74276632648391
H         0.88497154326356   -1.02348957103875    1.22942909785878
