39
 energy: -52.266485285200 gnorm: 0.106430804538 xtb: 6.4.1 (79825abcba525fcdf90b791dcacef51065a7a4e7)
C         3.52227180745522    1.31634703771810    3.47440634068122
C         3.70694431214715    2.13274603537506    2.18852910807855
N         4.84986408180677    1.63891926709065    1.44023287721734
C         4.84440173985043    1.23659721465167    0.13026734094162
N         5.92172967470174    0.86344312615545   -0.49453414011047
C         5.61165680795856    0.48471284710930   -1.87192795744580
C         4.09543763571920    0.39017842777993   -1.96696582091580
C         3.57240568854948    1.12641140422836   -0.73278328031293
C         3.10489963768020    2.56426956720588   -1.10363091725861
N         2.38751501532329    3.38158133763950   -0.10355968842511
C         3.15204349508737    4.24808532388329    0.78702270270305
C         3.58808595955459    3.68433682002680    2.16942236937768
N         4.77812543441850    4.40924985696920    2.67577427886633
N         2.57244674439380    0.39927892629944    0.06081446757182
C         1.35999940393159   -0.14295195026768   -0.27034360597234
C         0.63589972021445    0.51941536079551   -1.41576126352685
N         0.75531679783811   -1.11616113466016    0.32461840201510
H         2.90677282061117    1.81581102965336    4.22735704111728
H         4.45518248800640    1.11740225808840    4.00986805305047
H         2.95135996435288    0.39971859278743    3.29644593994414
H         2.82688150546916    1.80980824204223    1.62715772161988
H         5.75866530448434    1.48218693391867    1.87209519058274
H         6.17056518983719   -0.45097569245663   -1.99409421321315
H         6.01316751205636    1.17584422610180   -2.61635126141335
H         3.70638887384717   -0.63456873725905   -1.93392694235905
H         3.76462057680225    0.96939741236674   -2.83845972333185
H         2.40625982639681    2.57035754149628   -1.94783598570628
H         4.03523879557201    3.08238474949157   -1.36879573453402
H         1.75638947476087    2.88947360430762    0.52665825059618
H         2.46284176283645    5.06075115146633    1.05390260488162
H         3.96666636558767    4.75015102219605    0.24965824936520
H         2.83140555778205    3.89060249294225    2.93859693840573
H         5.57415521600921    4.30428117190997    2.04197949853499
H         4.88197765252644    3.94666207184729    3.57666970138984
H         3.02870328848875   -0.08186199615205    0.82933836972048
H        -0.24508732342289   -0.06528252446244   -1.66705717107265
H         1.37564721616418    0.73878975977332   -2.19110710611786
H         0.18465987990101    1.48840960865003   -1.17945380518348
H         1.22365084355255   -1.51765824904856    1.13855216321945
