39
 energy: -52.261387232512 gnorm: 0.118964249648 xtb: 6.4.1 (79825abcba525fcdf90b791dcacef51065a7a4e7)
C         3.38163589018473    1.46033854747830    3.62584993191989
C         3.51016784909783    1.96766464172831    2.18356309595234
N         4.66272843917890    1.42921723965198    1.48230975629822
C         4.79288406903687    1.32205018649765    0.12235484891059
N         5.95905625787381    1.13487388494864   -0.42102699180705
C         5.72744451815083    0.91997465162675   -1.84825152507717
C         4.28040088343350    0.46752173974914   -1.98330936759258
C         3.58060339866885    1.16521759966129   -0.81612817629605
C         2.99102035515109    2.54497349377702   -1.23108779270309
N         2.42676436929836    3.30252007379750   -0.09507720444533
C         3.17150505223856    4.17768929500325    0.80376099156215
C         3.59126044004585    3.52143998968985    2.14990976905346
N         4.97232118178425    3.95539435919203    2.46997222653017
N         2.67713950830014    0.29332676607331   -0.05324136301667
C         1.36685414004565   -0.08843128557296   -0.15870026215058
C         0.66188188003718    0.39993241452172   -1.39948526344476
N         0.67679229692280   -0.86755879766030    0.60519235224353
H         2.35877008338764    1.52311540146582    4.00669459174540
H         4.03172340585218    1.96045173848366    4.34965490212365
H         3.58269883228802    0.38543004440803    3.67015966683105
H         2.52151256850152    1.76416882056857    1.76512864578894
H         5.53773590460395    1.76508427896451    1.88048689671536
H         6.42362602304721    0.17960887467276   -2.26056942244106
H         5.86474540178179    1.84616282728900   -2.41071345292413
H         4.29474018292997   -0.61965811678775   -1.84051018666876
H         3.83338790504169    0.75818628684587   -2.94254327718371
H         2.22112016293191    2.38904910518789   -1.99512844957928
H         3.74195831354983    3.19779727470353   -1.69390520592704
H         1.46721500210703    3.00864564710440    0.07975686517693
H         2.44471135883644    4.95302131993145    1.08175530513996
H         4.06780484770905    4.53740418180206    0.28251937274035
H         2.95750776800121    3.74327818849784    3.01932661353095
H         5.67286552645355    3.54544089224436    1.84743432347649
H         5.27741616145077    3.82518592428077    3.43244202902980
H         3.12440295432437   -0.23590044908172    0.68849280034928
H         0.45217400041966    1.46138433213296   -1.50196378390645
H        -0.33937295971909   -0.03536164061685   -1.33225066668445
H         1.21899903191215    0.17340796144332   -2.31420686628214
H         1.31140586420100   -1.12925515264299    1.36137058693119
