39
 energy: -52.270768680036 gnorm: 0.111548029073 xtb: 6.4.1 (79825abcba525fcdf90b791dcacef51065a7a4e7)
C         3.71390042041002    1.60743527163170    3.80457204663453
C         3.60134639210295    1.99658634325373    2.32471239407589
N         4.59765079006608    1.20280451561901    1.62659655797656
C         4.80716804431421    1.18128908621825    0.27251302175084
N         5.91919582355551    1.28970845955919   -0.39223942525193
C         5.62597458522421    1.07671100120003   -1.80837816557763
C         4.19268280834987    0.57351332376212   -1.90510624150596
C         3.55281357664340    1.09797494924458   -0.61890433343682
C         3.11090012582108    2.54670482270580   -0.97865459705070
N         2.21649978446352    3.23358826143334   -0.02418045984671
C         2.90785366730047    4.06530263521817    0.95497783911898
C         3.67462006599533    3.54647662999356    2.20472306601292
N         5.02180747466898    4.15861759692284    2.11277386148643
N         2.51064495847021    0.26351592417561   -0.00571625419996
C         1.34335398819906   -0.24686842410043   -0.50636399091336
C         0.74155311081709    0.44277285400231   -1.70522304267146
N         0.59116922532998   -1.07398463429234    0.13927818839740
H         2.87126566557145    2.00999300532467    4.37303663746662
H         4.67151009249617    1.91630227116285    4.23376374355276
H         3.64929967962560    0.51507506882965    3.82441855702708
H         2.67290063371801    1.64274467618846    1.87004575362653
H         5.48363252213741    1.20695973881253    2.12860140861427
H         6.30576675558093    0.35082202369621   -2.27074600294753
H         5.72775966324670    2.02147571009955   -2.34698649382532
H         4.16133363383439   -0.52233994256164   -1.87902726254811
H         3.74176065811106    0.96666301580914   -2.82518162571207
H         2.67310308940443    2.62724378013626   -1.97998575281796
H         3.93262632958572    3.26225164281782   -1.10921286447769
H         1.66552229623032    2.56854525436833    0.51601000022018
H         2.17193928375387    4.79258548282116    1.32394848767475
H         3.65753517062975    4.68709468222476    0.44921776953081
H         3.08703395024499    3.98011349663849    3.02535812923653
H         5.38095594485269    3.76340817034365    1.24030635409064
H         5.59674316495066    3.81444751922100    2.87918185516854
H         2.96849848344099   -0.36136484422871    0.65017229111621
H         1.45819373967425    0.20708449644844   -2.48755074489755
H         0.66793817444089    1.50895523470561   -1.47209511367809
H        -0.26527953655384    0.05010909615852   -1.87989890619230
H         0.95028969080695   -1.49256004534533    0.99884319143749
