39
 energy: -52.262217763767 gnorm: 0.130323258169 xtb: 6.4.1 (79825abcba525fcdf90b791dcacef51065a7a4e7)
C         3.88449352713030    1.73561858925234    3.85527663441180
C         3.75576909796143    2.10416088465895    2.37146460926059
N         4.79861253747129    1.44198222443236    1.60721680142892
C         4.78768681173426    1.17580670167508    0.26299442456293
N         5.91563824814135    1.01122803466495   -0.36222214203759
C         5.52872349993177    0.64183785642743   -1.72260569559651
C         4.01433436252552    0.55743935274104   -1.85063678450806
C         3.47743276960072    1.15205588894721   -0.54795654306598
C         3.07951382031549    2.64771538006303   -0.71585282015972
N         2.10250550842902    3.19982821537044    0.24508831390914
C         2.57341182514056    4.13857085851671    1.25774790187250
C         3.73876365978419    3.64622406495329    2.16247105486033
N         5.02445830350616    4.12313459230922    1.59888365358949
N         2.51651745639445    0.22112622006049    0.05904314053174
C         1.47525616135399   -0.26483495008475   -0.68481518637906
C         0.85663840965538    0.59477046811686   -1.75879051936633
N         0.71877913522159   -1.26730168883153   -0.38554956390341
H         2.94929896607072    1.99936689960626    4.35636146496615
H         4.65771047728082    2.25924607703419    4.42498744937068
H         3.97134642064557    0.65622966710003    4.01400304234289
H         2.86581908063358    1.59545721628061    1.99311723478050
H         5.77838095079550    1.52873010710077    1.87088024889747
H         6.03873273728011   -0.31859548484726   -1.86499457269928
H         6.02762037040511    1.38708910196363   -2.34609745820915
H         3.67953803235362   -0.44951339408914   -2.12724992556608
H         3.80448461822279    1.27071364802725   -2.65787841156802
H         2.60397341999307    2.60104550170328   -1.70200702184718
H         3.98771733654462    3.26244482421389   -0.75535906739218
H         1.54298510184419    2.45682465720572    0.66047578070442
H         1.74061370059637    4.37838885551703    1.93271772848242
H         2.71254954997123    5.09040169782594    0.72944903770519
H         3.62880979901564    4.25795112520349    3.06825271798945
H         5.43187198754121    3.53928272094140    0.86437106459913
H         5.70650044844464    4.08445688818052    2.35367359171312
H         2.78485577235416   -0.30518573077501    0.88444357076927
H         1.35844587664479    0.80720252026174   -2.69912094095043
H         0.51107937871829    1.59403352980399   -1.47847829964596
H        -0.04652093609761    0.05434093624234   -2.05986789277062
H         1.02644442247304   -1.75388898938048    0.45801415691356
