39
 energy: -52.262575220796 gnorm: 0.107887334327 xtb: 6.4.1 (79825abcba525fcdf90b791dcacef51065a7a4e7)
C         3.92359809660771    1.68343647386786    3.82319918640688
C         3.69346720535148    2.03333918776822    2.34715737536558
N         4.79316637945231    1.44811459255087    1.59999495923393
C         4.74109026813767    1.20763190535146    0.25190046420208
N         5.81273992868276    1.19843222237296   -0.48412857037858
C         5.50893970666441    0.74114487342549   -1.83889395565544
C         4.05256743289983    0.29940334408067   -1.81180585442049
C         3.48390222885772    1.08806013282184   -0.63136172377084
C         2.97905300585058    2.50582874677492   -1.02958959662830
N         2.37414392678557    3.43644556044139   -0.05449008199024
C         3.37864648264206    4.10645608747220    0.76436917522729
C         3.67666827847903    3.58234322104283    2.19805777124047
N         4.94629612980816    4.19640064416145    2.65529266187061
N         2.36889689957690    0.34434187625403   -0.02962821058906
C         1.19982518337381   -0.10913930315073   -0.57856784051758
C         0.59625089458960    0.42193416900583   -1.85476981172745
N         0.57852526892346   -1.11418522748314   -0.05835048968763
H         3.02746382234782    1.90768782517773    4.40791513936697
H         4.82541328516312    2.20825429207783    4.15170526875630
H         4.12907381082530    0.60880399155506    3.85081642984350
H         2.81492266633940    1.48938097532949    1.99190230559260
H         5.66121245523297    1.88404825966263    1.90568698809081
H         6.29937463777074    0.07135129849089   -2.19862358285654
H         5.65211293903425    1.62305708583459   -2.46720261054124
H         4.00610677568946   -0.78236487058700   -1.63809286673142
H         3.50655378315409    0.52382543137880   -2.73697611091731
H         2.19765039967749    2.23305964972942   -1.74779838013010
H         3.77532654380553    3.01396328762034   -1.58819000742797
H         1.77266673674188    3.02150017832738    0.65523496802431
H         3.05825449770340    5.15713430554541    0.77296691358573
H         4.35116690823581    4.13085833412411    0.25638343933905
H         2.88112020370095    3.93502672864016    2.86847397939436
H         5.78800202258694    3.61519714522490    2.66584477470911
H         4.81492430071953    4.43386220514982    3.63648517879872
H         2.58986557584784   -0.31756914985527    0.70748932266879
H        -0.09747073627274   -0.29847806275219   -2.28011195410861
H         1.35186326366730    0.44974903432762   -2.64520573026301
H         0.01355371398421    1.31906211431154   -1.62231785809177
H         0.86691807747972   -1.25282055125086    0.91151275891603
