39
 energy: -52.265451356861 gnorm: 0.112890313209 xtb: 6.4.1 (79825abcba525fcdf90b791dcacef51065a7a4e7)
C         3.77106789281063    1.62669639483496    3.91156639708580
C         3.61575359193024    2.03953481759026    2.44203128396716
N         4.58830936724049    1.31248008183462    1.64478324902623
C         4.66184903919336    1.19858468897123    0.28114020267895
N         5.83098250255364    1.08903239833398   -0.27687557443330
C         5.63161440887163    0.72027140559932   -1.67725525068046
C         4.15038559342942    0.50094369485714   -1.95065255897440
C         3.49617173934957    1.14061878655014   -0.72524324987675
C         3.17311732310479    2.64033014751572   -0.98987065266038
N         2.32036650873820    3.32966062134485    0.00029157623676
C         2.88880819771265    4.11095651008842    1.09341587427978
C         3.78887480749333    3.57316121522467    2.24216762180997
N         5.10535513538032    4.14604342508887    1.87234245955092
N         2.43782830051856    0.33530948706472   -0.10088516592477
C         1.18212064261242   -0.03062444340949   -0.50461674663431
C         0.86546303453191    0.15341656835420   -1.96779455121858
N         0.40879701355841   -0.80599964657906    0.17913820171522
H         2.94332788120434    1.93360658200341    4.55646224625713
H         4.72630681961203    2.05305281705783    4.23150297356581
H         3.71801478252386    0.54798168106571    4.08870442569655
H         2.60541784522188    1.77389968238550    2.12172385282223
H         5.49419946582723    1.49520809750596    2.07252542000094
H         6.11296218465353   -0.26274310714664   -1.74655899646210
H         6.15648235971937    1.50862661488525   -2.22135927103007
H         3.90519122926338   -0.56560259240555   -2.02076674785406
H         3.79162163399697    1.03935320745396   -2.83712861576608
H         2.65862031589585    2.66797121902685   -1.95700335084275
H         4.07321551233749    3.24723333746111   -1.15042728413784
H         1.64049430354651    2.68320086260871    0.39718915598125
H         1.95234459452145    4.55535638741983    1.45700125202386
H         3.51025577919678    4.96361350123588    0.79138953510241
H         3.49858099730892    4.11249867084828    3.15408038743110
H         5.43946565738921    3.89147592331633    0.93963499811868
H         5.85162594787505    3.74000183166905    2.43323050685614
H         2.66651340172594    0.08230794541216    0.85514252810575
H         1.47754503532195   -0.58575531959030   -2.47783373663884
H         1.16631114766800    1.14364488995623   -2.32198509558990
H        -0.18774975334963   -0.11188310153023   -2.10478862083493
H         0.74945883301341   -0.91836276429226    1.13535414913241
