39
 energy: -52.265395196933 gnorm: 0.112493131817 xtb: 6.4.1 (79825abcba525fcdf90b791dcacef51065a7a4e7)
C         3.81734546095658    1.65972851670553    3.85106200810817
C         3.62756486529128    1.95282700439903    2.35701778242811
N         4.71237350425087    1.38773037875953    1.57347852692240
C         4.87690572602667    1.25403915989568    0.21961058694880
N         5.98159016303105    0.86721285727047   -0.34633468991303
C         5.65180836272198    0.61143753849440   -1.74726955310611
C         4.14488621314553    0.62379019485975   -1.96156509180577
C         3.61932922514170    1.25422891157812   -0.67116018051983
C         3.10938040260186    2.71329447481524   -0.85718666120959
N         2.08610270869159    3.27859667970514    0.04620575708419
C         2.54705417934281    4.06313278364118    1.18659902105044
C         3.56757593464722    3.50162986752790    2.21724157733087
N         4.88496447427721    4.06759190586128    1.84006848506608
N         2.61888279044493    0.33589314052485   -0.11062180859197
C         1.38387025785851   -0.06095725665973   -0.54761421648615
C         0.75103877231641    0.58108493204258   -1.75688612788817
N         0.78812006083924   -1.02063868279538    0.07756594601255
H         3.09366351503277    2.23872256857860    4.43096577323461
H         4.74720528310521    2.12985939641094    4.18416602593661
H         3.88305762642419    0.59096762977427    4.07744669253357
H         2.71783631749657    1.49911657654936    1.95642071195084
H         5.60828887990590    1.41323993266599    2.05687759351928
H         6.15688302472171   -0.34471192868789   -1.93028321684499
H         6.20297764989374    1.31799117563506   -2.37179646148999
H         3.81168134821566   -0.40791280215614   -2.12624872129868
H         3.76288540626478    1.20950380588145   -2.80740853234007
H         2.84377119657960    2.77556276229136   -1.91850247778736
H         4.03039766298936    3.30483180155168   -0.77910035803334
H         1.59975918360163    2.51562305563200    0.51418583127479
H         1.66469679831447    4.39736024137203    1.74908201129940
H         2.90690292871837    5.01217632973122    0.76914701926201
H         3.26808685547145    3.76337231302927    3.24122276128898
H         5.16666039159030    3.76502585084327    0.90439821402340
H         5.58195894074967    3.76239258329352    2.51640966430084
H         2.87912592224560   -0.26966667455919    0.66130204080149
H         1.36323444554834    0.52294588276756   -2.65298641756913
H         0.50550725325885    1.59830499103693   -1.43831073108146
H        -0.15039740485777   -0.00253040995925   -1.96952295156294
H         1.35974863995251   -1.52350529112587    0.75829410334744
