39
 energy: -52.265071479635 gnorm: 0.116139924498 xtb: 6.4.1 (79825abcba525fcdf90b791dcacef51065a7a4e7)
C         3.82311695514112    1.62142486188470    3.91284500261301
C         3.74206520164517    2.02479061008440    2.43473193716789
N         4.72626745424690    1.31970077708698    1.63206636678342
C         4.73303427044342    1.30834835735744    0.26176422809306
N         5.84675670996014    1.20506766195507   -0.40096633663754
C         5.55134001205109    1.03898446545852   -1.82291601790897
C         4.10801161948573    0.57024841322970   -1.94114973034090
C         3.51248378733602    1.17688310251063   -0.66987126360297
C         2.85493634846767    2.57733358281867   -0.84277538217362
N         2.14278028140002    3.08950380523773    0.34604634921839
C         2.78634642233218    4.10765710085909    1.16924526391426
C         3.81823842287964    3.56080501803252    2.19643851145510
N         5.17119874704419    4.02443732903681    1.80576143267817
N         2.53557760334018    0.26724084665469   -0.05615941191316
C         1.33851708901074   -0.17763372885900   -0.54894873089401
C         0.91691178803889    0.30339245557209   -1.91492648274906
N         0.49220504268843   -1.00048292940138   -0.02604138635882
H         2.90203292009994    2.04760731876853    4.31930627321161
H         4.69209235109438    2.12586907424624    4.34532438615490
H         3.85792510038499    0.53826885493996    4.06574825999794
H         2.71229113468271    1.72663143554067    2.22353610258032
H         5.68231036024000    1.31962642319470    1.98273960703127
H         6.29741179425264    0.27893429342631   -2.08467326294860
H         5.65553284285172    2.02956095530104   -2.27118107692672
H         3.93709478983772   -0.51142723466486   -1.99879078996322
H         3.68946432440628    1.07381698241369   -2.82187275393012
H         2.26209687218723    2.63850691938081   -1.76234921312522
H         3.69137001537302    3.27110427353176   -0.99557470001011
H         1.55579497846261    2.43836517005322    0.86482458018678
H         1.98165249369034    4.67295122292914    1.65869382587654
H         3.31769673404968    4.86355137720105    0.57701925931561
H         3.54855914838830    3.94419236890411    3.18993109574638
H         5.27502288051186    4.04666164823843    0.78836067919010
H         5.83700073784541    3.40509914471934    2.26348758149359
H         2.98323008670616   -0.21466513541757    0.71693145937439
H         1.67333171507305   -0.10337551636678   -2.58090556682515
H         0.94621699101875    1.39642460381372   -1.94549754487543
H        -0.07010590561830   -0.11639446269624   -2.13397781270387
H         0.86157614498703   -1.43828747145010    0.81948629312912
