39
 energy: -52.274447383378 gnorm: 0.110998928307 xtb: 6.4.1 (79825abcba525fcdf90b791dcacef51065a7a4e7)
C         3.64455515757758    1.57954993853584    3.81152179793462
C         3.59750932039027    2.06762506698756    2.35767830203734
N         4.64216493275049    1.37567509268510    1.62284658801950
C         4.70707333604483    1.26399304125288    0.25858245509381
N         5.88127662597940    1.11313858000423   -0.27876838869666
C         5.67744080891277    0.94266437640815   -1.71619144841194
C         4.21644713293867    0.55706325214232   -1.89976375975709
C         3.51086887895553    1.21235946340178   -0.71167530593381
C         2.84391326136968    2.58627119655854   -1.01344135193455
N         2.26395620211519    3.29584944596231    0.14540730975638
C         3.00739763924961    4.22971070872581    0.98425648311620
C         3.75806968611775    3.60708522167016    2.19578578753592
N         5.15597860509094    4.08965707259478    2.09061827990128
N         2.49389284248453    0.31934298120835   -0.14008258566010
C         1.28029620100760   -0.20057812599373   -0.50143253801548
C         0.69454163594545    0.27943270998842   -1.80585333139493
N         0.70750408815815   -1.20049092446049    0.08066758955585
H         2.78252143299486    1.95918565386502    4.36651065327955
H         4.54255815529709    1.82726889576964    4.38497323638760
H         3.60069076867404    0.48603701936753    3.82262863364782
H         2.63259401779907    1.77436659592851    1.93711305006939
H         5.55432303384131    1.30495103908353    2.07001038975312
H         6.39616307067069    0.21693057743415   -2.11564730836483
H         5.91341102860941    1.89853481992190   -2.18912827332365
H         4.17315595061141   -0.53862423558997   -1.91209507537811
H         3.72026966443382    0.97910581279197   -2.78301014738869
H         2.10062680805528    2.39749771724710   -1.79619717451646
H         3.65347494252419    3.21832282120114   -1.39997376685387
H         1.82702691510878    2.57407531943215    0.71619539441299
H         2.21518294232525    4.88210583732512    1.37595296199943
H         3.80192784658208    4.73716513066083    0.42242669297368
H         3.33196045945328    4.11908301995911    3.06930136754516
H         5.59676308734915    3.62360582704294    1.29382285960339
H         5.69960421950564    4.07014616731445    2.95112732648827
H         2.77275840472774   -0.12575232663853    0.72849083146381
H         1.43580283021925    0.19240672243958   -2.59586456039261
H         0.37926607643934    1.32672207191062   -1.82314403477056
H        -0.13523219028403   -0.34333889944713   -2.15519468716207
H         1.23073674787481   -1.49274953768067    0.90761218879516
