39
 energy: -52.266359400718 gnorm: 0.117268262751 xtb: 6.4.1 (79825abcba525fcdf90b791dcacef51065a7a4e7)
C         3.80321109827551    1.61433488080454    3.77687125696046
C         3.75448461342246    2.04353948195583    2.30462783495709
N         4.70579957451408    1.27005584487253    1.52565372189861
C         4.72422165588384    1.26698877342068    0.15541511736896
N         5.81024601722079    1.21797658854795   -0.55761031062361
C         5.49157350620087    0.88190961257460   -1.94408150061422
C         4.01528188251926    0.52078365702174   -2.02798992626838
C         3.46545363384307    1.07373799737843   -0.71241463068621
C         2.92357487698566    2.51652359414340   -0.93210330838306
N         2.36894497215831    3.47623842778877    0.04468468473990
C         3.26012605286606    4.19465049800103    0.94920130835556
C         3.76065691332938    3.59975865593626    2.29625246065705
N         5.03760882799026    4.26748256123676    2.64499838726607
N         2.53139864713189    0.15349970442500   -0.04973847756477
C         1.29376153218609   -0.25881959864760   -0.46441390987771
C         0.81524974209914    0.09378846614656   -1.85067739003026
N         0.41214771808412   -0.90939693531129    0.21842075346709
H         2.78766867854246    1.75556726016104    4.15629853531096
H         4.58496253061383    2.07695747119170    4.38635108019600
H         3.96077489037162    0.53134238426635    3.76596915072331
H         2.77474696864086    1.68901603770280    1.97544023147686
H         5.62721788069921    1.54538490359067    1.86057458523037
H         6.06172711929772   -0.00455964778643   -2.24725361077731
H         5.79798979275428    1.76674184993145   -2.50641632900668
H         3.91857885424651   -0.56997039560627   -2.08682344180253
H         3.51693727262750    0.98567443557908   -2.88820233560806
H         2.11142306750912    2.49225464469259   -1.66738373709658
H         3.73496565261180    3.11829962723594   -1.36081917006737
H         1.51458224241728    3.19741031405481    0.52425045081066
H         2.76179234930442    5.13133377593919    1.23369667149615
H         4.15600958622563    4.40732210423792    0.35203765270578
H         3.02653549355479    3.96085931722873    3.02933658523651
H         5.84781540775811    4.00928144728672    2.07642548576296
H         5.32957321646258    4.12546842584690    3.60986836922678
H         2.72259810082570   -0.24274372335983    0.86499072561830
H         1.58044700348944   -0.01174092032144   -2.61520084920619
H         0.38845884207430    1.09741092362303   -1.93496347605902
H         0.16124243464043   -0.69752465272224   -2.23081743615618
H         0.72576311208690   -1.23144843994444    1.13545570009216
