39
 energy: -52.273918060734 gnorm: 0.106658570628 xtb: 6.4.1 (79825abcba525fcdf90b791dcacef51065a7a4e7)
C         4.13343465118946    1.34563042431326    3.44279907912134
C         3.71344020472503    2.09623205558221    2.17225060768444
N         4.80089276516174    2.04424868761003    1.21057371517499
C         4.77160724977063    1.22803201258319    0.11019408097482
N         5.86182323167099    0.73390993760153   -0.39727893611752
C         5.58456964596749    0.13382454703707   -1.70105173742864
C         4.14041718333480    0.48253730761209   -2.03228067476015
C         3.53448856188321    1.16802654492548   -0.80681627406745
C         3.11558358203884    2.62905237548145   -1.14363688785775
N         2.49777645311919    3.39240695554654   -0.03983172693237
C         3.21057546165789    4.21393449853276    0.93252624566797
C         3.36080114799197    3.60106191291950    2.35407248748707
N         4.33747076705799    4.48730063277475    3.03140736220844
N         2.61105956568813    0.23015649418690   -0.15404098431428
C         1.31015819123227   -0.11128179887140   -0.40856807581693
C         0.51022374534658    0.59174354782487   -1.47669383762046
N         0.67913404983701   -1.04224708104605    0.22536341526860
H         3.48895306646716    1.62438784256591    4.28075840940911
H         5.16119244468060    1.65804013954252    3.64952283312876
H         4.16445931836006    0.26059595543932    3.30295765648177
H         2.78485055988647    1.61834070588841    1.85088113449910
H         5.68266387816303    1.87738558929600    1.69184930057816
H         5.75616461116626   -0.94939731732563   -1.69971810156251
H         6.31558132321434    0.48010156581137   -2.43505012978511
H         3.51403610069629   -0.37300346787522   -2.31201981054158
H         4.08539482679596    1.19615876818006   -2.86423808759947
H         2.34303437340949    2.46749581210571   -1.90382374325003
H         4.03266531126072    3.13830731131240   -1.46598326281604
H         1.68937840393053    2.90542245474411    0.34357773055367
H         2.56281615901758    5.08787687470131    1.08511153635922
H         4.17587151494557    4.60316838172323    0.58447242388298
H         2.37922585255193    3.66776427783485    2.84274520259325
H         5.25183725882812    4.48395099829878    2.57282218611633
H         4.47353201418879    4.19128089274699    3.99589943353611
H         3.06489030492869   -0.27094998869597    0.60307562143086
H         1.13242580131616    0.66245452654251   -2.36496405495964
H         0.15849764769017    1.61114395348120   -1.29332477758143
H        -0.38276794389725   -0.00021413951956   -1.70155023706294
H         1.29687869067606   -1.59765216805346    0.81945232243383
