39
 energy: -52.267623338390 gnorm: 0.109838010084 xtb: 6.4.1 (79825abcba525fcdf90b791dcacef51065a7a4e7)
C         3.76918368245925    1.40809824358077    3.63257896834476
C         3.79063238669996    1.89807951274977    2.17877366886630
N         4.94408418371245    1.53913176302131    1.37206230627333
C         4.87924220251127    1.27409172659830    0.02913568294608
N         5.92302848596633    1.23009216895728   -0.74470578043350
C         5.55614869232682    0.72349500582361   -2.06589996717237
C         4.17524510202040    0.11042548787313   -1.88112826006112
C         3.59187057281532    0.97700316320287   -0.76420155193518
C         3.15930646279328    2.41611432177543   -1.17086281820641
N         2.63251938525579    3.44465628901345   -0.25033117733610
C         3.52302800736833    4.02883961726671    0.74676169586605
C         3.45199539691562    3.41703852766633    2.17491717169156
N         4.21422994376480    4.28965466673946    3.09991701241768
N         2.55037189993528    0.32932838098073    0.04464629699089
C         1.23175412206661    0.11735034008774   -0.25538877611570
C         0.53389393392047    0.58875671712270   -1.50670792385924
N         0.55184637341496   -0.60773272420021    0.56846618167573
H         3.03078749227881    2.01800205332306    4.15986111026579
H         4.68789858574365    1.58017277132565    4.20088689411384
H         3.51415427589259    0.34378044984318    3.63494186904368
H         2.93960805712670    1.47735749745242    1.63776739847426
H         5.83709178318944    2.01170652709224    1.49934264905480
H         6.32595184646707    0.01480173000577   -2.39449267084800
H         5.52284456226003    1.60893881020374   -2.70458580135097
H         4.22807488739551   -0.91667889083912   -1.50057225039255
H         3.56572075414682    0.14890640232415   -2.79295909292269
H         2.32759113635341    2.30254457527329   -1.87525503302981
H         4.05320343274471    2.95135031050288   -1.51547466929301
H         1.80818666291732    3.12959432164723    0.25846705999356
H         3.29802525527258    5.10151224475346    0.82022498286412
H         4.52632111601661    3.87813608874772    0.32827353916461
H         2.40248562549482    3.57241040753051    2.45974887692947
H         5.20779096601762    4.28146255414035    2.85671535089376
H         4.11505099748530    3.88296546328161    4.02790016573638
H         2.90532877940553   -0.40616178559116    0.64743601717922
H        -0.37720085003520    0.01109437177662   -1.63851054940641
H         1.15186496512545    0.70285505330120   -2.40203246221607
H         0.07694446762099    1.55641040263462   -1.27594397999511
H         1.05433161301922   -0.97725210419532    1.37716198116696
