39
 energy: -52.267513781971 gnorm: 0.129660372023 xtb: 6.4.1 (79825abcba525fcdf90b791dcacef51065a7a4e7)
C         4.03313611093758    1.58901809905622    3.69937124757920
C         3.75458144927104    2.09511092314812    2.27797443791377
N         4.79814659959560    1.62095495211878    1.38565968194615
C         4.72917055723413    1.23265729918713    0.07326880050972
N         5.81458077435893    0.65990471646622   -0.35579470903627
C         5.50515716236714    0.27689901231776   -1.73215193138874
C         4.04203759871769    0.57121821997658   -2.03139577336395
C         3.46997499517873    1.29700604633731   -0.81287848792221
C         2.86499352933092    2.70882650003293   -1.06642612692675
N         2.35420008982157    3.45887011334595    0.09946680594160
C         3.20089816462066    4.29072995201230    0.94774832511737
C         3.53780660946915    3.63568485511782    2.31755958245733
N         4.65046523610976    4.45472955915128    2.85537152239519
N         2.49048511625271    0.43802354029002   -0.13377203318066
C         1.42236461616469   -0.29243856045451   -0.58014887911139
C         0.65974038322314    0.22920249100563   -1.77234321028713
N         0.86960074258215   -1.28657120953042    0.03051416705027
H         3.53626223583579    2.22946866400822    4.43297704889828
H         5.07152602574234    1.63600056802269    4.04019326486759
H         3.74703998375422    0.53839705102357    3.80965436019950
H         2.77735359929762    1.74049019317241    1.94151186434486
H         5.72069219654935    1.54411272321511    1.80991743667975
H         5.73072021302352   -0.79399236316276   -1.80377030488780
H         6.23383113371558    0.80895137412708   -2.34777682876060
H         3.46687753032835   -0.32962753148819   -2.27680377456321
H         4.05319945162523    1.23511246148506   -2.90521270395566
H         2.04527973166165    2.59916289647268   -1.78535591177603
H         3.58232704999036    3.39006108115093   -1.54144057904074
H         1.70403037685506    2.92007236188870    0.66923908301794
H         2.60403612553614    5.18811433454668    1.16013155039072
H         4.11434739766384    4.47372811040805    0.36760772061300
H         2.64786472473935    3.86572302843291    2.91907945531562
H         5.51497730459547    4.28689497750604    2.33496005136871
H         4.94097581342618    4.23387625736227    3.80574656664445
H         2.80248890537453    0.00632291414763    0.73027878897877
H         1.28705568448863    0.80090450830819   -2.45115963662759
H        -0.12653448972253    0.88330326072316   -1.38448154830602
H         0.08159710435419   -0.41074762163281   -2.44660032908946
H         1.42944949049995   -1.51935773467248    0.85234425870057
