39
 energy: -52.262152160273 gnorm: 0.117128890654 xtb: 6.4.1 (79825abcba525fcdf90b791dcacef51065a7a4e7)
C         4.04682153534801    1.50687143677711    3.59301124971278
C         3.66106795546348    2.04364210486909    2.20839470395088
N         4.78038369305015    1.67642220878082    1.35847731548711
C         4.81143777080256    1.23751930744915    0.06067051791100
N         5.83621370995067    0.61615103039973   -0.44330576457492
C         5.51896499644179    0.17265892974182   -1.79957400875925
C         4.13629275241148    0.71922444459993   -2.12572295827082
C         3.55491214225692    1.28706174672434   -0.83020554535675
C         2.90501532341580    2.68198533709796   -1.06546771162643
N         2.33274215884869    3.43149778567552    0.07186082866201
C         3.12984494574118    4.22209960742545    1.00355061892283
C         3.34614639976086    3.55653717097671    2.39251231469555
N         4.30364455505803    4.52061701303817    2.98566699149003
N         2.64853724815563    0.39239038824763   -0.09775440211406
C         1.51121099370742   -0.24639232177059   -0.51266912708586
C         0.76420145992410    0.38312887901444   -1.66189158515864
N         1.01024630562479   -1.28327024075142    0.07100505248698
H         4.97518937619324    1.87793810935946    4.03536938976204
H         4.12519755160257    0.41578943382512    3.59724001489731
H         3.32988394459257    1.92436549377519    4.30681595276848
H         2.74061916640321    1.58908063660428    1.83411527123306
H         5.67756686251290    1.64338286195861    1.83906083057243
H         5.31431381097533   -0.90480641956321   -1.79798217704784
H         6.35288559699420    0.39046629572703   -2.47052547287062
H         3.45673031668204   -0.04989812192906   -2.51199053345956
H         4.08454204631851    1.58748356118682   -2.79496443833261
H         2.04759229002269    2.69032521644694   -1.74779683892540
H         3.58952801841305    3.40690107700720   -1.52397203000587
H         1.64106532274841    2.89757792338917    0.59547982968005
H         2.61858323825673    5.19430039010549    1.01286526945042
H         4.06004753388869    4.44295566572896    0.46467521816553
H         2.46875807999144    3.55582936241087    3.05351875546904
H         5.02627873845492    4.72888571184225    2.29226836930252
H         4.68845584075090    4.24118741148270    3.88579180157062
H         3.10443119825616   -0.10397431652103    0.66124389199064
H         0.22138349514124    1.24372861863098   -1.27995418982096
H         0.08415892029983   -0.36110376069553   -2.08635900037310
H         1.54070342218681    0.73183119217538   -2.35026638909890
H         1.54897006122384   -1.63400452768742    0.86459629467185
