39
 energy: -52.267859135355 gnorm: 0.111896881021 xtb: 6.4.1 (79825abcba525fcdf90b791dcacef51065a7a4e7)
C         3.78177735302484    1.30810391808339    3.55072880790255
C         3.76598445376724    2.00385043328494    2.18333021229588
N         4.93796626525232    1.67053377798423    1.39248484131363
C         4.88025907502491    1.28575095690799    0.07851578802011
N         5.91546083464141    1.20979755223057   -0.70432823498500
C         5.47031908297509    0.78410487656519   -2.03000923524255
C         3.99218155746875    0.42321907320777   -1.98805161460816
C         3.56116771718237    1.13225451268787   -0.70341010390755
C         3.02912723751006    2.54652992611447   -1.07795516049179
N         2.49798869764025    3.43444811195133   -0.02331073614936
C         3.49026149845462    4.08135479321625    0.82837958948258
C         3.47191723108815    3.52887135228887    2.28213328998778
N         4.32076764461033    4.42607822589808    3.10222959071187
N         2.54827506542037    0.29820302728703   -0.04246870549180
C         1.31956251723811   -0.22619260119450   -0.34076933179366
C         0.67468749030606    0.38761477436246   -1.55831158334874
N         0.72176077250393   -1.11014121225219    0.38588388452634
H         3.02204809199598    1.92334960177166    4.04013891270387
H         4.74261527898771    1.48053768065131    4.04436602006835
H         3.51034056915888    0.25050579475208    3.62573699754204
H         2.89363204820196    1.58384165855406    1.67684120252315
H         5.86409813614255    1.66150833963944    1.81579094289572
H         6.12052138083155   -0.06516139194290   -2.27249634914219
H         5.63583774281472    1.57354880645871   -2.76650183323588
H         3.86299506113368   -0.65131085098881   -1.81126484094447
H         3.47021247095244    0.73322393156460   -2.90231713514695
H         2.22865387224781    2.57116471940336   -1.82592065077344
H         3.88810404023475    3.11186379796546   -1.46115634860356
H         1.66777928465734    3.05154634913723    0.42591381608579
H         3.32086546242796    5.16491636696736    0.76633958831681
H         4.52538837319053    3.89919159886553    0.51251588221109
H         2.41064257728943    3.70769414923311    2.50226689195177
H         5.22964610593681    4.36697022200637    2.63658610873691
H         4.44539105409992    4.12426819445934    4.06647282496763
H         2.88142152272085   -0.12286036290631    0.81893403379409
H         1.29076318838420    0.38834783637130   -2.45363812590550
H         0.34452600469991    1.41575575328730   -1.38386336681569
H        -0.20163054285795   -0.23173623264831   -1.77482833859417
H         1.28227686305537   -1.51532456835436    1.13733118228260
