39
 energy: -52.266897059562 gnorm: 0.100010659068 xtb: 6.4.1 (79825abcba525fcdf90b791dcacef51065a7a4e7)
C         3.55163710606474    1.72267476434729    3.83280375283869
C         3.49780398229234    2.24833207241709    2.39236004203496
N         4.39502193083233    1.39270170857227    1.63540916724821
C         4.58442448163942    1.31867765229697    0.28021543640938
N         5.73844594152801    1.14050183003379   -0.29140021010474
C         5.53430929455332    0.95198705743867   -1.72652600115186
C         4.02966592756476    0.81722129522975   -1.91300967386914
C         3.34460153126717    1.30313943449963   -0.63497268067061
C         2.57384566994202    2.62435862838559   -0.92452676916717
N         2.34207720824358    3.50556260855705    0.23846281538832
C         3.52885931018424    4.18625332426096    0.74509724802836
C         3.89314723469762    3.73983239209392    2.18973459322570
N         5.32471514120707    3.93824535550515    2.52038676175599
N         2.45468977888552    0.27504080710821   -0.07863866480950
C         1.45446519270656   -0.48281349872237   -0.62537113928350
C         0.98101467046985   -0.16876572792893   -2.02260095134426
N         0.89102742715707   -1.46776755732098   -0.00961106659567
H         4.33426520618702    0.99276721601158    4.05633520759969
H         2.65919042585706    1.27058907268653    4.27527195121577
H         3.65133649547695    2.51045996907347    4.58597869010194
H         2.47942144358849    2.33284329984050    2.00545934089555
H         5.21827015220610    1.18011681288650    2.19581963030625
H         6.07306613706854    0.06101532465829   -2.07109339849399
H         5.98491592377521    1.79855794126390   -2.24931747653919
H         3.78473552551664   -0.24099194144854   -2.06384456951764
H         3.59583436913652    1.26601020955083   -2.81568067504826
H         1.58441498012911    2.24142168815143   -1.19875866637062
H         3.07073973021131    3.16447489681428   -1.74040510983614
H         1.66830788521803    4.19845974312042   -0.08339525867827
H         3.48515626391408    5.27879290537665    0.63975489759595
H         4.30261174731629    3.90464723504452    0.01953114565694
H         3.30587729674099    4.33818188879624    2.89954600867627
H         5.92726333963535    3.39245894155307    1.89955623804911
H         5.57829850849469    3.59571537200020    3.44491583539846
H         2.63922397013598    0.06879039475007    0.89793882782059
H         1.03555240715482   -1.08235873585933   -2.60871774634642
H         1.52302213384858    0.65587443989115   -2.49452169304227
H        -0.06973168429985    0.09799876074351   -1.87036004724808
H         1.28251773538057   -1.61484900146243    0.92212241968432
