39
 energy: -52.262360987715 gnorm: 0.138541021266 xtb: 6.4.1 (79825abcba525fcdf90b791dcacef51065a7a4e7)
C         4.08856084195194    1.44664534096269    3.75343119940070
C         3.77645452599376    1.99310277041463    2.35412227629271
N         4.85677157675234    1.63771163163779    1.45041327647337
C         4.80231666586103    1.27339104131646    0.13048608904332
N         5.94369665567652    1.00017788374982   -0.42885517883172
C         5.60056460963455    0.64412359566165   -1.80445733441788
C         4.09576664312451    0.42077517744370   -1.85533074603741
C         3.48343609630922    1.14659832850992   -0.65656469200191
C         3.05401417229022    2.60518041585901   -0.99072203921143
N         2.15804193256812    3.19469243544805    0.02539362564290
C         2.79913549168501    4.03753233669018    1.02893231948123
C         3.54566871956218    3.53104655951825    2.29587136547533
N         4.69574874419304    4.44371300863234    2.50188353518108
N         2.48299339031682    0.34516107888273    0.06124426251453
C         1.37904465920800   -0.10185878367665   -0.61342531958003
C         0.62869499926369    0.60757707995320   -1.71283815665849
N         0.77070681770219   -1.15026350800628   -0.16898229349743
H         3.23530088770239    1.62239347855452    4.41395984300884
H         4.89624209508144    2.07799726890694    4.13509381880888
H         4.46531281217315    0.41996036664841    3.79578519028513
H         2.83562163705763    1.52467408765071    2.05521554067085
H         5.78086281654461    1.88239327724034    1.80137770277468
H         6.13955073706957   -0.30414903878564   -1.91886532503014
H         5.95094820982792    1.37822894888980   -2.53340188018714
H         3.93249879552909   -0.66222456621868   -1.80044511320468
H         3.61160724965044    0.69357960156852   -2.80169410588236
H         2.60353924344232    2.65126031981991   -1.98860271401863
H         3.91974679174819    3.27946432557451   -1.00233757879111
H         1.62006793254342    2.43900228032044    0.44632175802851
H         1.98014488264515    4.67453951069128    1.38966199863924
H         3.34689837242902    4.65969305888255    0.30968770831769
H         2.97710601818765    3.80791033502851    3.19410473303894
H         5.20850934036574    4.61982446642976    1.63445112443731
H         5.37433170658142    3.94297129575144    3.07211875191385
H         2.91173342605730   -0.29093094956314    0.72597318195273
H         1.21993318526643    0.75398799985446   -2.61292741598394
H         0.23488418346007    1.57347361541913   -1.38349094528383
H        -0.20637758772996   -0.06726671959729   -1.92649230192290
H         1.06888994645309   -1.69902148843218    0.63908724837485
