39
 energy: -52.264820943942 gnorm: 0.109463921533 xtb: 6.4.1 (79825abcba525fcdf90b791dcacef51065a7a4e7)
C         4.08642697364625    1.49410950948276    3.64409534544519
C         3.61452476074696    2.05850610570043    2.29767180988991
N         4.73974392370280    1.91268851093455    1.39064545080486
C         4.85206049491157    1.33621724331040    0.15251441842054
N         5.97526038767335    1.07301691663829   -0.44698865710460
C         5.68468884059681    0.55039108392972   -1.78086494599052
C         4.18720558486733    0.37285198817575   -1.98802021443520
C         3.63101881504328    1.08274644755144   -0.75290317393985
C         3.05298948387462    2.48835288775139   -1.09006580401307
N         2.26946631292219    3.09338497893259    0.00666083735292
C         3.06014007528112    3.98172489209232    0.85173904435122
C         3.30999156309540    3.58422903717477    2.33448837028705
N         4.42222465404487    4.41962146928790    2.84746223100657
N         2.58898461250213    0.23833978306204   -0.15325408353388
C         1.32646833561581   -0.11493223088392   -0.54690378879219
C         0.54823966692272    0.66333606531669   -1.57825775899719
N         0.76157533920075   -1.14394558594003   -0.00951715746905
H         5.09435798119278    1.84182300137684    3.88577376878670
H         4.13970859099284    0.40151706085760    3.63925489661852
H         3.53869453141937    1.87729997161426    4.51068186209801
H         2.76216125700259    1.56347752349784    1.82612079251994
H         5.67226032544450    2.06350826083484    1.77098256668170
H         6.15585939684262   -0.43954443178910   -1.80988566767644
H         6.21863710136342    1.18925568452701   -2.48782375918189
H         3.95272716686642   -0.69690487412004   -1.93147472783472
H         3.76473374961860    0.80219623185623   -2.90541720875295
H         2.46363507689877    2.60787686095803   -2.00614017506542
H         3.83402535537393    3.23533187998836   -1.28057047544674
H         1.56161656811472    2.65569003226099    0.59405848374079
H         2.70047012701624    5.01756983634863    0.91740824335471
H         4.02815300535333    4.14688676237080    0.36172528871547
H         2.45425662104975    3.79917757494351    2.98890041288667
H         5.27525216336699    3.97085389025296    2.50492844454109
H         4.38476278421415    4.35994895296390    3.86305127428064
H         3.01673953308365   -0.49789053838704    0.39927307229565
H         0.26687832441917    1.63020623813009   -1.16940902721058
H        -0.39716513141601    0.13289505529351   -1.72439044230966
H         1.10476788920097    0.82816617364124   -2.50643653147363
H         1.34197625223365   -1.61845281535667    0.68402631799638
