39
 energy: -52.265622060103 gnorm: 0.114114134504 xtb: 6.4.1 (79825abcba525fcdf90b791dcacef51065a7a4e7)
C         3.89201505455741    1.50796567337889    3.72994703273801
C         3.60299771876559    2.01519794531983    2.31104747651716
N         4.69503544233308    1.62941299584897    1.43429133398662
C         4.75568356007622    1.42206440707238    0.08106150123745
N         5.87710162023487    1.25220650408755   -0.55441170275860
C         5.65136937999937    0.71406972995211   -1.89465396073155
C         4.15532485391233    0.43734490700477   -1.94116938520223
C         3.49456308995403    1.15526434305439   -0.76354739084509
C         3.04353747359436    2.59637755872854   -1.14209014536287
N         2.34065518636788    3.41231845855922   -0.13066607361617
C         3.17949081087893    4.05679102230498    0.87406268405214
C         3.37534973192280    3.55455584148368    2.33295725813994
N         4.58670382244187    4.24884921652838    2.83161858409652
N         2.53911418297164    0.37796565126244    0.03730283595916
C         1.39477981491410   -0.19471611876713   -0.44874554533316
C         0.72134426486161    0.21442880871365   -1.73487050883806
N         0.76386689427647   -1.09143578862123    0.23286996818046
H         4.91738654928487    1.12950727357225    3.75485861230279
H         3.29559598772724    0.59140690804309    3.75866895415228
H         3.48093539413632    2.18714632014566    4.48330293161177
H         2.64817714146317    1.58426281687592    2.00032287399284
H         5.61722200605908    1.72925892658188    1.85452042729396
H         6.22453404964506   -0.21871530600621   -1.95954276491576
H         5.93988028866235    1.43137072541136   -2.66619801273366
H         4.05398616693137   -0.65452804776850   -1.95122838050486
H         3.68383781289409    0.89120483964100   -2.82216162057932
H         2.55190422686849    2.57912746041614   -2.12128167010331
H         3.95849464553692    3.18266877615308   -1.29506944509432
H         1.57499678300697    2.87115388386361    0.26754522637904
H         2.76469650439343    5.06882238135293    0.97598360658881
H         4.21593349689985    4.08950891707059    0.51467841405124
H         2.50367341053209    3.84758661385656    2.93383464730607
H         5.46349046184436    3.98243793708619    2.37703318760492
H         4.68403425605325    4.27984360073011    3.84451119352437
H         2.96978158831484   -0.14663485955471    0.79203160152602
H         0.31800767671372    1.20904987235773   -1.56396713646492
H        -0.04629189844048   -0.51877824937272   -1.99879245080459
H         1.45085191145258    0.22378904750942   -2.55104417126309
H         1.16715854304198   -1.24112017280108    1.15913953848206
