39
 energy: -52.263790231802 gnorm: 0.117661352514 xtb: 6.4.1 (79825abcba525fcdf90b791dcacef51065a7a4e7)
C         3.48702347561323    1.43394820669543    3.55997882282254
C         3.55669724623516    2.03379074428286    2.14950867093761
N         4.63761024898554    1.46121069866257    1.36601843477755
C         4.67391424670186    1.41584452195719   -0.00311507759536
N         5.82307959644526    1.21560102731757   -0.57720385655107
C         5.47550227879555    0.98619271296995   -1.97840241026979
C         4.03520640850710    0.49383455796140   -1.97384207472497
C         3.36881074257923    1.20437809741523   -0.79492194261913
C         2.94973285122330    2.66061285555362   -1.15168523088773
N         2.68671647326784    3.64603735790163   -0.08278737356577
C         3.74430655972827    4.16649337633425    0.77692112297575
C         3.65901874009248    3.58521022938141    2.21699409522759
N         4.80045449838719    4.07798914407877    3.02469360152540
N         2.51966155813752    0.36396832802022    0.06011841998521
C         1.37894108942565   -0.29904662622193   -0.30440393373422
C         0.55549676027702    0.11422021113753   -1.49863271324489
N         0.87067795832625   -1.22273627336782    0.44072894088240
H         3.03654747087326    2.17874183725133    4.22148609206711
H         4.48132924817653    1.24498487074410    3.97503244247437
H         2.89016914475867    0.53323817201419    3.73406009159849
H         2.61162365589007    1.85779426902228    1.63008749518872
H         5.55788642430359    1.48015025343964    1.80159026926178
H         6.10487226302102    0.17176048973198   -2.35709727445895
H         5.56079454383667    1.93053590243291   -2.52060224502058
H         4.12145013670017   -0.59183572956223   -1.84562621011354
H         3.46402039152026    0.67521201150853   -2.89323586045559
H         2.13027846730977    2.69251672783223   -1.87852324683137
H         3.85007074708728    3.11853877939676   -1.58061669714175
H         1.79481011567520    3.40891952864924    0.34842290747775
H         3.69449198223032    5.25575226436893    0.90989946575437
H         4.76410079534134    3.97623565496820    0.41878334748984
H         2.71204857677094    3.84897213524708    2.70731791981916
H         5.65139927782474    4.00744518301072    2.46140486836544
H         4.96447958905793    3.39514817359377    3.76172093071964
H         3.14838053558671   -0.15354615616857    0.66607784390106
H         1.05541097151994    0.84008547137353   -2.13452957953873
H        -0.39050834539713    0.54192590772997   -1.15416960125198
H         0.15334072059610   -0.81557895873954   -1.91354534296756
H         1.35180219565136   -1.44203491664926    1.31448660487057
