39
 energy: -52.268159498717 gnorm: 0.112345590509 xtb: 6.4.1 (79825abcba525fcdf90b791dcacef51065a7a4e7)
C         3.76075042378701    1.59928936792414    3.76428849098749
C         3.54937895832346    2.02949922425682    2.30677926457043
N         4.55881944788882    1.23979410903610    1.62305891862874
C         4.69291478649493    1.31334963761969    0.26125472573186
N         5.85747314469429    1.21457456535549   -0.30822195458216
C         5.64098296842076    0.97280600922068   -1.73352034967654
C         4.18190380027519    0.57265091801433   -1.90041380504569
C         3.48490843860267    1.19125973930136   -0.68784274453027
C         2.92765398235514    2.59792179988981   -1.05430599705443
N         2.20249727563233    3.32532228663995    0.00768175184921
C         3.05436964765424    4.16685103890025    0.84111607856934
C         3.67387413863104    3.57150785355519    2.13755540839187
N         5.04506383253633    4.09538684001402    2.34606143955279
N         2.57438356915454    0.21399325219026   -0.07601628739488
C         1.38985400588908   -0.31071596839346   -0.51791956504856
C         0.60168630607452    0.44716892068971   -1.55687798242215
N         0.78345192984236   -1.31724530400479    0.01680670949981
H         3.02701316590597    2.10629996206067    4.39659217171403
H         4.73343287265213    1.96254797759530    4.10860325739373
H         3.80335704538731    0.52729489973585    3.98069201667789
H         2.55712315608668    1.74927067845724    1.94506447033927
H         5.45867098414184    1.51957564596588    2.00903726657017
H         6.32832535606187    0.22043643891599   -2.13888030348759
H         5.89139731454910    1.86761626204531   -2.30766907199380
H         4.13681041449279   -0.51646418726304   -1.78061338459205
H         3.90721836752306    0.86726266425261   -2.92128990142900
H         2.37792113992325    2.41819402397890   -1.98506299144595
H         3.87750657376073    3.11950186868584   -1.22757160434754
H         1.34850996409665    3.00155441613608    0.45884042883249
H         2.42272644297266    5.02711780387150    1.10114994418791
H         3.86582604698894    4.53458035472789    0.20021467262273
H         3.09088216453104    3.99201175425209    2.96824013252981
H         5.67834776477219    3.82413521737217    1.58991880688002
H         5.39990358697121    3.99262737337128    3.29469969654144
H         3.13482245386831   -0.54475113917278    0.29883145318440
H         1.23819988259865    0.56518305874282   -2.42985138058447
H         0.27314244845885    1.43298065389703   -1.21519565103415
H        -0.32337726517559   -0.09082766147200   -1.78758457360416
H         1.36827962105122   -1.79332430035192    0.70553760366438
