39
 energy: -52.260348093752 gnorm: 0.121206271738 xtb: 6.4.1 (79825abcba525fcdf90b791dcacef51065a7a4e7)
C         4.04629388093587    1.52484736748348    3.73855196225062
C         3.74040114590048    2.07276103688203    2.33844061024148
N         4.76334462202886    1.67721905265169    1.38596439095043
C         4.63230242538187    1.14257170314112    0.13102105668917
N         5.74595821166274    0.68383928222053   -0.35846002946379
C         5.49323569569535    0.60067828193828   -1.79582258952984
C         3.98897335562112    0.58437456880071   -2.02781082464252
C         3.38118357358527    1.20047857505240   -0.76693199787730
C         2.88046430311768    2.64505211490732   -1.06021257975705
N         2.38132215115122    3.51815894568376    0.02206431361533
C         3.42271340586074    4.08514954781225    0.87206189047192
C         3.61978527287205    3.62432241332868    2.34439857355007
N         4.79354639334669    4.36862734363706    2.86051885593906
N         2.40013227199825    0.36138072849340   -0.06558322052550
C         1.25869457116535   -0.24242958430544   -0.51972159764011
C         0.83916411474539    0.18552075350273   -1.90387662645587
N         0.47642179567459   -1.01860168323800    0.15285788381336
H         4.40123102999274    2.24163089783808    4.48385662299583
H         4.69327443246938    0.64353785547088    3.70207828446156
H         3.09480670882515    1.17049221202644    4.14711350794853
H         2.81986028880701    1.62217018113030    1.95961397870412
H         5.72150074872649    1.64177608296281    1.72899557408533
H         5.92185314398478   -0.30183928723182   -2.24811159226168
H         6.04088050038272    1.49185414571720   -2.11035436600231
H         3.68915340459811   -0.46366479482692   -2.14730456445845
H         3.72982596143604    1.16907864698110   -2.91966280163832
H         2.04830207272775    2.43532706565699   -1.74163630370569
H         3.61326470883251    3.27905568112041   -1.57531423468500
H         1.67097175275424    3.21030534759554    0.68410101617987
H         3.12787165012875    5.13974422761727    0.95894148805968
H         4.36961465141523    4.07282009128985    0.31738453392833
H         2.79339841019353    3.68671894848744    3.06546147851823
H         5.62690411243327    4.16757561621668    2.30242318328825
H         4.99104326185362    4.37559751233340    3.85918381809035
H         2.86511238495215   -0.17223203898916    0.66197882784089
H         0.53484817237183    1.22811275249073   -1.94328673051913
H        -0.04074163543511   -0.37301872592424   -2.23600940477325
H         1.66692255153216    0.07382379174485   -2.61151228623347
H         0.79455815132400   -1.23646738459444    1.09855798352597
