39
 energy: -52.259542684564 gnorm: 0.123743213373 xtb: 6.4.1 (79825abcba525fcdf90b791dcacef51065a7a4e7)
C         3.98529476184157    1.78217920627997    3.97972110600362
C         3.63325961139212    2.05125767774545    2.51078966576748
N         4.53529770282505    1.20983047538350    1.74371386070811
C         4.67113710655375    1.10381902017961    0.38422431783310
N         5.84002813961487    0.90291214260957   -0.14830411108649
C         5.62306044852272    0.71517481752094   -1.58164819337873
C         4.14709396046542    0.86847275538133   -1.92063521972856
C         3.50640487526781    1.30921787648634   -0.60379460123967
C         2.95429117902701    2.74598665763148   -0.83701537893406
N         2.02632974207783    3.28495961223331    0.17845368934646
C         2.67875213660987    4.06939388724176    1.22127574994069
C         3.78157714577682    3.56827202116288    2.19679004454117
N         5.03378929585139    3.86228154858459    1.45949209522742
N         2.41949050845268    0.44877741756269   -0.11728013173023
C         1.43548134037685   -0.24341818432852   -0.77019650260785
C         0.74097535657097    0.43833560323648   -1.92254438640227
N         0.98458907074414   -1.34495548709802   -0.27012779123989
H         3.40926592401394    2.47793271481343    4.59563983620708
H         5.04020104972836    1.95160017511836    4.21443343219777
H         3.78466359892893    0.75672749172761    4.30531881088609
H         2.58662825345242    1.88764147567280    2.24296559231408
H         5.41454384463386    0.98901055114107    2.20756140184813
H         6.09565641003790   -0.25276154298749   -1.78796949117763
H         6.17533417218356    1.46154393962610   -2.15694494769065
H         3.64751700110115   -0.05775857122518   -2.22897862612986
H         3.90788331567662    1.62285440103391   -2.68097907823582
H         2.46299204196152    2.72081788851068   -1.81620307634959
H         3.81486561542620    3.42689319538622   -0.82897777513147
H         1.28729716717178    2.79048131077641    0.67543073308842
H         1.88911449440991    4.55324081154774    1.81204999278392
H         3.14504282151048    4.86772016107641    0.62993057757318
H         3.85179080902789    4.16450471114703    3.11674488052711
H         5.27453763698815    3.35967336485033    0.60170254529233
H         5.89560952816405    3.85898307316336    2.00137797755714
H         2.72598894870906   -0.02146875713575    0.72842836650015
H         1.44671386860510    0.63483287894892   -2.72534037439489
H         0.29433830509283    1.39636478851675   -1.64110507966905
H        -0.02630815266851   -0.30321359612247   -2.16706283989089
H         1.51255906606496   -1.84604124909303    0.44624196307435
