39
 energy: -52.270943808355 gnorm: 0.116322877786 xtb: 6.4.1 (79825abcba525fcdf90b791dcacef51065a7a4e7)
C         4.13752466102127    1.51238767346232    3.71289678648752
C         3.79611136542596    2.10752449045837    2.34054818679526
N         4.89250512825866    1.82862026889732    1.42938908744374
C         4.81080003413607    1.30001167976780    0.16772358981600
N         5.89410616865983    1.00251539136991   -0.48664643304356
C         5.55819935699297    0.48726396302890   -1.81272264445491
C         4.03799837103794    0.49665173447603   -1.88881708172151
C         3.49372744935651    1.15172545859878   -0.61859837731060
C         2.89568021147834    2.56054954732864   -0.90334419048798
N         2.13161186763689    3.23372183734538    0.16708578579669
C         2.87058267429106    4.15745376182410    1.02096601250800
C         3.59637458156217    3.65036598783895    2.29966158421036
N         4.85173416736198    4.40124042271315    2.54120874906880
N         2.46062838642513    0.27973668084473   -0.04346463682980
C         1.29565984063036   -0.20737807210570   -0.57193040302143
C         0.74258464657802    0.45639001372821   -1.80827670854580
N         0.64112803641890   -1.26018174796388   -0.21144529826999
H         3.35534932525780    1.82767275745959    4.40862310401923
H         5.03762344850944    1.87614542395859    4.21700301403367
H         4.21541632699681    0.42117162751541    3.68129965984822
H         2.84620326176728    1.65047483579701    2.05294184730175
H         5.82894791696164    2.07132819370883    1.74744178449366
H         6.10975043788393   -0.45097494225950   -1.94805696153018
H         6.11838935465343    1.21416312780145   -2.40504372225164
H         3.70982318400285   -0.54909723389791   -1.92441772057268
H         3.76675794104582    0.99826904957507   -2.82649766405995
H         2.22303822166331    2.43472968300321   -1.75922909708463
H         3.65485938202982    3.27858140285779   -1.23855145672367
H         1.48447052542885    2.59013857285829    0.61949355284801
H         2.07990152655917    4.84048952567116    1.35998685129642
H         3.60672728762460    4.70604348056060    0.41964963893161
H         2.97131807563918    3.77865807852263    3.19385719511134
H         5.53206797284310    4.43373285988513    1.77801295662490
H         5.21759575679523    4.03852323498011    3.41925592545510
H         2.75200063452358   -0.34626645428356    0.70052319742504
H         1.49803742275169    0.62323900219024   -2.57156691649346
H         0.15966754767008    1.33774485918002   -1.52555077690226
H         0.06294235743942   -0.30475013776076   -2.20471144471585
H         1.05867640313448   -1.74957270698764    0.58176005583260
