39
 energy: -52.263365357072 gnorm: 0.121798981952 xtb: 6.4.1 (79825abcba525fcdf90b791dcacef51065a7a4e7)
C         4.09707915038149    1.51586498321650    3.71382029822467
C         3.77182946422581    2.05645167168104    2.31522449544474
N         4.85095434003219    1.80235072743042    1.37660851103651
C         4.80949753709993    1.20247396143007    0.14521426051184
N         5.91340397739998    0.77806121781231   -0.39471235709328
C         5.66750406277801    0.52884668490302   -1.81394485818995
C         4.15463190331234    0.50932847046467   -1.98045732564041
C         3.53672678122818    1.11461238129429   -0.71925447895506
C         3.03825274436405    2.57017372385150   -0.95672197239536
N         2.29315288675861    3.19720981380287    0.15432872229299
C         2.75141705150019    4.18126370214946    1.12906040713723
C         3.50425582554467    3.58902978922856    2.35440404767459
N         4.67660518734188    4.48040586218578    2.52508155038208
N         2.53601681058771    0.21812698195928   -0.12483845704260
C         1.31670771344388   -0.18053978803641   -0.60239337029660
C         0.59211859680258    0.57006648375927   -1.69170198286499
N         0.70895211589292   -1.12032824361509    0.04118084523760
H         3.15083916017943    1.43645094487693    4.25563330990280
H         4.75519995623833    2.23684270785184    4.20746870076156
H         4.65814255950920    0.57866745152366    3.64536165007511
H         2.85724226416107    1.57530654732047    1.96030644260373
H         5.72612268871058    1.66877677348547    1.87982627609885
H         6.12508953398202   -0.45344690697156   -1.98285624237524
H         6.07692377370459    1.35420696384253   -2.40062654199332
H         3.86973690706255   -0.53628401711757   -2.14804798003410
H         3.88619702730499    1.09000986277586   -2.87219047988533
H         2.35156842294230    2.59461013556372   -1.81035207983183
H         3.94258658011618    3.15746687972289   -1.16056931038617
H         1.64926836604001    2.48295656955082    0.49036317305345
H         1.86638750840340    4.75700898059110    1.43219361056545
H         3.25619182377629    4.81280048529989    0.38689824628852
H         2.91924228591457    3.79756952679656    3.26050041055405
H         5.16631916891076    4.35755872222944    1.63543754132167
H         5.29304495621929    4.01220746508139    3.18627560474034
H         2.80054475016032   -0.37449883154402    0.65561988374248
H         1.24267400477326    0.84045476709638   -2.51924488643451
H         0.22264401413342    1.53428604685914   -1.33075624892683
H        -0.24317623065915   -0.00201681881244   -2.10812929746099
H         1.32644864710940   -1.69971593712231    0.61217368052258
