39
 energy: -52.266002774547 gnorm: 0.116327264704 xtb: 6.4.1 (79825abcba525fcdf90b791dcacef51065a7a4e7)
C         3.78814428195437    1.37700656148921    3.64643936689299
C         3.59238013279281    1.83192171533464    2.19426163569521
N         4.74113865482998    1.35672875642019    1.44284744390781
C         4.84291095339997    1.30431847863365    0.07727130255113
N         5.96573384145802    1.14805262036013   -0.55920817492412
C         5.70554070982292    0.83225329745852   -1.96254914257690
C         4.24360371781915    0.42476944311510   -2.07911108492613
C         3.62832038960868    1.08864974750018   -0.84643214829191
C         3.09287328021314    2.46808681108271   -1.33014260684085
N         2.53047399678883    3.36325657203155   -0.29807678331950
C         3.40494379446887    4.00273974043102    0.67907920309933
C         3.34817880391372    3.36580654412308    2.09684791378919
N         4.30083150251145    4.11196162285463    2.95346368491833
N         2.64592174443597    0.30736348434417   -0.08293910218265
C         1.28159431777721    0.19659684618430   -0.09000987360319
C         0.52689803431887    0.44021533279573   -1.37302038937495
N         0.63375997374597   -0.41277008545124    0.84579971490332
H         2.93304059717259    1.77868955578716    4.19660889775077
H         4.69218150575317    1.79709446142442    4.09684304767381
H         3.92215143891078    0.29848885689606    3.51736730482248
H         2.71660226811396    1.38600725574243    1.71665234352974
H         5.63066640181252    1.64287995862391    1.84762843225173
H         6.50315701385945    0.13948570565000   -2.25699356192888
H         5.81477413509101    1.71871691986021   -2.59126990525403
H         3.99877009934053   -0.64416160780542   -2.07869532878692
H         3.90882738970795    0.97567831232613   -2.96728923010367
H         2.39517062414324    2.26660102820901   -2.15077123469459
H         3.95968667608483    3.00689568553521   -1.73338721929131
H         1.71084259664060    2.87046048373547    0.05266601841182
H         3.18219059540775    5.07504665553118    0.76386454209492
H         4.43308635755192    3.90924941421306    0.30675758942124
H         2.32621578250104    3.46635818863444    2.48700331617271
H         5.26276244753595    3.81317170324823    2.77516307904752
H         4.01195786286021    4.07035687935175    3.92876177813368
H         3.13633517267920   -0.15908646958762    0.67350965915718
H         1.22095004728128    0.09472413211055   -2.13465485638228
H         0.27541944491870    1.50460053498286   -1.39187040803309
H        -0.45854273201877   -0.03367990986835   -1.32069198488569
H         1.24087144302585   -0.59641642822309    1.64624619656159
