39
 energy: -52.263382259417 gnorm: 0.120320955589 xtb: 6.4.1 (79825abcba525fcdf90b791dcacef51065a7a4e7)
C         3.56957950662486    1.37191219784537    3.65835805276850
C         3.62770213795535    1.95259560189890    2.23937246378176
N         4.74992158578113    1.40845977041528    1.49464601476222
C         4.75453840273777    1.30115749063978    0.12849539057660
N         5.89603945376556    1.19895271594995   -0.48533350204032
C         5.60701008674454    0.91281644812945   -1.88939319085670
C         4.11026221494964    0.67546531588294   -2.03187052906102
C         3.49580193157713    1.26104693733541   -0.75973032144272
C         2.82888122046454    2.62422255126391   -1.10685422155558
N         2.43279799968414    3.52769958619277   -0.00702285448049
C         3.56295861645897    4.01854903547015    0.77417735627095
C         3.64025204989071    3.50879745010343    2.24154006915023
N         4.85206598454013    4.22862809692356    2.70136174475008
N         2.59991579233253    0.30882427340896   -0.08958334754617
C         1.35227626102940   -0.20788382339749   -0.31345137953457
C         0.49054497264750    0.23325519600874   -1.47010516279224
N         0.64825031968624   -0.99859195975290    0.42538898801927
H         2.53768542467095    1.53839344787304    3.97885243449376
H         4.26506320561918    1.80019311158540    4.38602453046144
H         3.81401359622188    0.30763426476602    3.58499314721587
H         2.73043408809599    1.64833710135228    1.69506187115282
H         5.63629423845863    1.45193527543188    1.99408886510034
H         6.22581868889152    0.04997062076320   -2.16396415362707
H         5.86312475194404    1.73560351709613   -2.56056098500709
H         4.02352844157979   -0.41530148924013   -2.10441219560075
H         3.89105649878615    1.14234400631472   -3.00058582233515
H         1.91761182272571    2.51759413307693   -1.70604977865084
H         3.53186271234252    3.19761035140102   -1.72437355602977
H         1.55808183343378    3.18556044399295    0.38728230861395
H         3.72325482172534    5.10523952318758    0.78183054449059
H         4.54558647822202    3.68735172688588    0.41474476813638
H         2.82305329129494    3.90618386088973    2.85880056218777
H         5.62047237810437    4.06699113534392    2.04576829389270
H         5.13493841354467    3.86704302654461    3.61000068898221
H         3.15798368226448   -0.29603145835662    0.50455922115958
H         0.97168870653963    0.77973199134717   -2.27696527282261
H        -0.36211828124613    0.86331143482331   -1.20083361081940
H         0.06022663695558   -0.70092219099206   -1.84500142573486
H         1.13074903027209   -1.31467197809321    1.26818985375310
