39
 energy: -52.259904625335 gnorm: 0.127348435047 xtb: 6.4.1 (79825abcba525fcdf90b791dcacef51065a7a4e7)
C         3.42053189945650    1.52430062312264    3.62806087210449
C         3.66106323715524    2.13301739355854    2.24036490241221
N         4.67602762339396    1.44861799382417    1.45836586786660
C         4.63615569717817    1.33261906272091    0.09350064787854
N         5.71379812800465    0.97547035633055   -0.54005120144512
C         5.30238942890607    0.76302040666493   -1.92655884350455
C         3.78799895258707    0.62088663426688   -1.98408279938560
C         3.30958295656777    1.27861596471727   -0.68896959150016
C         2.97393738175617    2.75056429821103   -1.06875388915240
N         2.76060887069799    3.75575275194693   -0.00721312531225
C         3.82229823299149    4.23216100185945    0.87274188631038
C         3.68764825087559    3.68684435101336    2.32307749908888
N         4.85685440268951    4.27161239691216    3.02242607707382
N         2.35167608392124    0.46792186307149    0.07498486438920
C         1.48842918666170   -0.46096399240360   -0.44046098437093
C         0.72221035428779   -0.13264755600284   -1.69750093742559
N         1.05938975106260   -1.50699581379473    0.18283634835683
H         2.36197467689713    1.57153338965956    3.89725173112618
H         3.96574210245448    2.13707686126100    4.35185071274938
H         3.64685677296664    0.46668542847595    3.46059415536901
H         2.71978218734075    1.86672673438181    1.75352153062274
H         5.60787820531021    1.44696728000371    1.86902572094714
H         5.88249748935942   -0.05714760416484   -2.36657621640550
H         5.66223598369060    1.59790761655855   -2.53196225439492
H         3.55304889437527   -0.44607379276009   -2.07869343047362
H         3.31189042476672    1.00380012410965   -2.89574836221917
H         2.10234595514100    2.86215304999699   -1.72350053978629
H         3.81752431702222    3.09082851283456   -1.68264965703360
H         1.77616654128473    3.80909524774723    0.24909136316047
H         3.88031755452718    5.32660985252815    0.79881541095326
H         4.75944295914703    3.93350648945090    0.38590907045625
H         2.79248130130055    4.01404160519540    2.86929939442777
H         5.73348089725145    3.98987464862169    2.57686183767215
H         4.88436058708258    4.12080310363495    4.02884808963726
H         2.88845396628089    0.08389527822784    0.84614548864250
H        -0.32501119390368    0.01359102187314   -1.44630235150537
H         0.83323016849398   -1.01424362723951   -2.33544735432136
H         1.16194926071120    0.68021511643704   -2.28426531364529
H         1.62888348690267   -1.68738747099415    1.01118447529266
