39
 energy: -52.266131438623 gnorm: 0.117634854187 xtb: 6.4.1 (79825abcba525fcdf90b791dcacef51065a7a4e7)
C         3.92499273394059    1.58459864600604    3.79074230276150
C         3.65748376659208    1.87764061568559    2.30862998789048
N         4.78964092706469    1.50931242696432    1.47638466428956
C         4.76088884758236    1.20578236343738    0.14036616190868
N         5.92703356842695    0.94809747127162   -0.37340554423722
C         5.73989697794562    0.67324362589900   -1.79686288860428
C         4.25285669573208    0.49295668775350   -2.06722813669732
C         3.58130645469009    1.12690215571636   -0.84823616705176
C         3.06496512915249    2.52164292785818   -1.30825336719388
N         2.38644845841526    3.33997849660409   -0.28223009967802
C         3.37843726364200    3.85787355140721    0.65383234686924
C         3.40757760194100    3.40455975120747    2.14132410337334
N         4.39411394863848    4.27371969428460    2.82644612142971
N         2.59667893404405    0.15416451246667   -0.35556277557295
C         1.23276525954778    0.09006471282548   -0.25892285980192
C         0.39993904213529    0.77808562870776   -1.31156721594494
N         0.61763755487386   -0.65435075407643    0.59794381569564
H         2.96668346545279    1.51808489024734    4.31271674310607
H         4.66703525013091    2.22931540198768    4.27067336914884
H         4.37030214896118    0.59193859421598    3.90966874327725
H         2.77488820432975    1.31403406766446    1.99668457662214
H         5.72763871296289    1.42504230967822    1.86374556054898
H         6.31527975639866   -0.18248951774114   -2.17032194593961
H         6.13408458798728    1.53663409054673   -2.33742974562155
H         4.07920773200193   -0.58534161732722   -2.16559516360686
H         3.99712273117466    0.90399680540662   -3.05215572025216
H         2.24156913925101    2.31356218857278   -2.00074041937557
H         3.80001003238142    3.11469452509442   -1.86707844366575
H         1.72779795307736    2.73514712145940    0.20564555238537
H         3.14886030111358    4.92877032283586    0.73823726448680
H         4.42440579545531    3.83519656131641    0.32235603913507
H         2.46273151949452    3.60344197887865    2.66520579856258
H         5.28960418170935    4.15257961122101    2.34707154008563
H         4.39010790970611    4.22138251398657    3.84312211523361
H         3.09141737864481   -0.50264099812365    0.23953050604102
H        -0.59043643794162    0.34538614402782   -1.19716882391887
H         0.70506431971056    0.35146473133790   -2.27146608530099
H         0.44465448301832    1.86520258465798   -1.43233854565477
H         1.18431989191407   -1.11459577494747    1.31213603961561
