39
 energy: -52.271197236393 gnorm: 0.101842755666 xtb: 6.4.1 (79825abcba525fcdf90b791dcacef51065a7a4e7)
C         4.16017462397836    1.48995753548445    3.60478565555761
C         3.80502060831130    2.00015135982933    2.20205281474268
N         4.91079079651392    1.96553938325238    1.26069632310035
C         4.87209386692321    1.44266427602049   -0.00540270651793
N         5.91178929512482    0.94711970106253   -0.60849916287290
C         5.52184661576428    0.24698967601675   -1.83102040505562
C         4.02568740056376    0.43287862442027   -2.04040624534273
C         3.57580775524670    1.21929033019346   -0.80834581841981
C         3.00471465421833    2.64296841948661   -1.07390061744418
N         2.22174039185054    3.30078098906767   -0.00759126739736
C         3.06275452134605    4.08500527925020    0.89027145289407
C         3.36591700792518    3.49027503903030    2.29503574599611
N         4.28090076263067    4.40327850224581    3.02120001196039
N         2.70182644884349    0.29577496247807   -0.07233429443771
C         1.44393416621744   -0.11993935498958   -0.41671367482431
C         0.62667960942677    0.57933041922164   -1.47413940781151
N         0.83270087898076   -1.15275939920929    0.05913671188088
H         3.22003129976946    1.35589186584727    4.14644511764948
H         4.73561959286136    2.18315446221860    4.22523849291715
H         4.70068532883363    0.53829687732757    3.60763418018176
H         3.01143987956196    1.37117082601135    1.79150401994444
H         5.83978157703111    2.06139104417653    1.66662530566242
H         5.84085776437610   -0.79760600184539   -1.73168273940954
H         6.08688275552569    0.65059266559636   -2.67415638042850
H         3.51943530953691   -0.53882497486101   -2.08577358312410
H         3.71700730040428    1.00669722747344   -2.92351721379629
H         2.26373946405338    2.68616483211705   -1.88006852127427
H         3.84041227641103    3.28104964751618   -1.38814336249131
H         1.65491281904673    2.58058086393506    0.43702363269110
H         2.75152466919300    5.12062749975186    1.08333169084962
H         4.02017938565848    4.27670095362203    0.38924116388764
H         2.44265246285499    3.48542008809331    2.89026619883696
H         5.27908557393812    4.21021370500409    2.90836948043500
H         4.06619176040941    4.35218045564306    4.01501807282963
H         3.12345114376046   -0.29375132745977    0.63829005859799
H         1.07282135871805    0.80675890914567   -2.43870834533340
H         0.33464871233171    1.57174644238792   -1.11869454961470
H        -0.25543067846798   -0.03651233791550   -1.67669212133150
H         1.37675415659712   -1.62068089270886    0.78582811061354
