39
 energy: -52.270874685353 gnorm: 0.099411347535 xtb: 6.4.1 (79825abcba525fcdf90b791dcacef51065a7a4e7)
C         3.92804964374033    1.63295395802346    3.81716482576336
C         3.64790392122471    2.00949567554057    2.35640260492469
N         4.65637627837613    1.34858132909249    1.54630785769260
C         4.63113805328658    1.32564586099828    0.17636639788451
N         5.74387394592771    1.18471488685452   -0.48106318784463
C         5.41940622472619    1.01749242411948   -1.89653233031519
C         3.95735271254993    0.59500677844009   -1.92472726622803
C         3.35360063627005    1.25129497346005   -0.68231943049301
C         2.93267400028872    2.67155815580071   -1.16106702250032
N         2.61012259906443    3.66830753979503   -0.11932186782167
C         3.72929954357726    4.06690725050248    0.72745508546685
C         3.69254231736193    3.55684702520221    2.19628514703149
N         4.70591566832067    4.31832077362380    2.96525674840159
N         2.35367432244938    0.37958402252068   -0.05088906023549
C         1.34582093590561   -0.40419773351618   -0.54447417329893
C         0.57522991736797   -0.11729458758419   -1.80895370471567
N         0.83461830607390   -1.36975426182083    0.14336987589647
H         3.50761913232184    2.32742531563245    4.54941189272658
H         5.00604911756602    1.74219495432359    3.96751162855541
H         3.60506068135878    0.59926668963915    3.97523668526945
H         2.68070210923527    1.74335143717473    1.92324546802466
H         5.43316639977223    1.06687662096709    2.14147952674912
H         6.09379282155642    0.29175975513637   -2.36699065248274
H         5.52758395307854    1.97910465402311   -2.40312781999567
H         3.79579394942393   -0.48212134808828   -1.79724771892405
H         3.57080330835045    0.84615843217473   -2.92068840165563
H         2.06322818964883    2.66947917788215   -1.82805766041833
H         3.79884357951189    3.06796384379351   -1.70595184543076
H         1.80178446004656    3.41781758850267    0.44769520669121
H         3.66226879498895    5.15161432135484    0.88735227635653
H         4.64514598922929    3.83343064287439    0.16964246916291
H         2.71846387182062    3.92582830263444    2.54523254731786
H         5.65775808944097    4.11764798518211    2.64886442573426
H         4.54085530208908    4.13245160581194    3.95247153388227
H         2.74546014852576   -0.04289633546981    0.78476028829517
H         1.11830975318888    0.57693787272176   -2.44477207965596
H        -0.36762100242301    0.35155498303367   -1.51276984022721
H         0.39830580947152   -1.03110567926209   -2.38519637333389
H         1.23783450543397   -1.51683568078229    1.07008916198075
