39
 energy: -52.261180223572 gnorm: 0.114258143704 xtb: 6.4.1 (79825abcba525fcdf90b791dcacef51065a7a4e7)
C         3.69460788023923    1.71284823207754    3.77563054617181
C         3.54780990689770    2.07361040621639    2.29158453535576
N         4.59705908001154    1.41734893192266    1.53100922150288
C         4.81728786458661    1.15113894415782    0.20491188467249
N         5.96870018807292    0.87354977401780   -0.33123201576234
C         5.71352932542243    0.43254645745785   -1.70134130088210
C         4.23804012682435    0.67394069330581   -1.98691088067758
C         3.59649888397872    1.26152505696466   -0.72914403615212
C         3.18574663412033    2.74664240238631   -0.95103378023135
N         2.22788072719468    3.31826433473008    0.01774017568442
C         2.72487923246911    4.20128417610128    1.06737745168733
C         3.66578095515607    3.61986776960978    2.16082757985910
N         5.04805190771121    4.14179626838798    2.03834167801747
N         2.60110434932295    0.33034273006139   -0.18094139883641
C         1.35604911214981   -0.14376532747435   -0.49521447329730
C         0.46120139088774    0.54121878111829   -1.49774963123837
N         0.90605236914243   -1.22393132476079    0.05022234584074
H         2.85229274089808    1.98588697030586    4.41687394887517
H         4.59061860732802    2.12921749845944    4.24512179190725
H         3.79883241855620    0.62383344579795    3.80728481724787
H         2.51837742274495    1.81044436147809    2.03673243862133
H         5.42615814508684    1.10686213503858    2.03418161281715
H         6.02148857528765   -0.61907505239334   -1.74683329146472
H         6.32297989177389    1.00109232092378   -2.40729108544837
H         3.85734909627069   -0.32078546011209   -2.24796927061217
H         4.10709030506227    1.31764269351323   -2.86607870231887
H         2.69974872956131    2.89328092554237   -1.92217745392712
H         4.14571756315004    3.27344242914852   -0.87875494054521
H         1.62753913916243    2.63100100925034    0.47042464210296
H         1.79566312370887    4.54141240266960    1.54436788632703
H         3.23845567127970    5.09325219609172    0.68649263229671
H         3.35942156909204    4.13739076228809    3.08009585702471
H         5.40459434560165    3.74134594200862    1.16719605741498
H         5.53078281695286    3.66646449246079    2.79822053565716
H         2.89965193966431   -0.38145129198599    0.47823553021794
H         1.05902893489364    1.08505305608697   -2.22438979771411
H        -0.18460048794997    1.32605405133953   -1.09341538214022
H        -0.10733780113325   -0.19473652873074   -2.07528009163637
H         1.35700313153306   -1.72248259576947    0.81906232756859
