39
 energy: -52.260224872068 gnorm: 0.117437430664 xtb: 6.4.1 (79825abcba525fcdf90b791dcacef51065a7a4e7)
C         3.70738233240762    1.67298638572988    3.83211816861834
C         3.61784905904740    2.02862165076942    2.34228633025701
N         4.61458760547639    1.30980457268936    1.56775935035103
C         4.61167770393892    1.34714523652578    0.19790541144316
N         5.75189925215050    1.36077466878414   -0.42656670145578
C         5.49875053426442    1.18409084217387   -1.85537532951695
C         4.09885080738361    0.58852477109014   -1.90508795801610
C         3.36599242452609    1.15757463074529   -0.68939522866850
C         2.83340870144243    2.57570047477256   -1.04828191316576
N         2.42180868526203    3.52965611231912    0.00211599411675
C         3.50345328062853    4.06951828247125    0.81885571124400
C         3.78598231584942    3.57387208424798    2.26574425541263
N         5.14466688054815    4.05053034152747    2.61909719540982
N         2.38415371474813    0.30500125527326   -0.00562019589338
C         1.25365513493061   -0.28782226501937   -0.49982843374572
C         0.99743720249889   -0.21629792413566   -1.98450653098913
N         0.42611874425387   -0.92862157816666    0.25602653052292
H         3.30117077586133    2.44361577634874    4.49269410071764
H         4.77202667060584    1.49636435694280    4.01088537393930
H         3.03072672456418    0.85123563999253    4.08644247158431
H         2.61546096101656    1.81197410671656    1.96516679203731
H         5.46768655162507    1.14397633121807    2.09852571741607
H         6.22937950204792    0.50774290736018   -2.31532206658846
H         5.50292798861260    2.17782180366815   -2.30871936417243
H         4.07333166049882   -0.49213945755874   -1.72050500651677
H         3.60855546594134    0.66986624656330   -2.88357158643443
H         1.90350223199556    2.40701425035435   -1.60293114643543
H         3.54494544712515    3.14771779346299   -1.65721402455716
H         1.49646108504923    3.48152700305521    0.42529388158649
H         3.45007416328322    5.16146738451931    0.92584864024423
H         4.36413265716486    3.76820466559023    0.20821500523936
H         3.12783005088614    4.09448550196118    2.97464308248957
H         5.84035649215517    3.83404452410868    1.90109474458161
H         5.47050414374007    3.41802519425134    3.34721299809056
H         2.48960045995106    0.00133925469851    0.95717052491631
H         1.86317891747678   -0.37765958317430   -2.62138416083416
H         0.52556705177155    0.74824303811238   -2.19310171419722
H         0.28135141183357   -0.97972080227317   -2.30515448741440
H         0.66299114119635   -1.15312269666585    1.22376388795765
