39
 energy: -52.258839726721 gnorm: 0.112988888876 xtb: 6.4.1 (79825abcba525fcdf90b791dcacef51065a7a4e7)
C         3.99530328966806    1.56622376758344    3.87332241412167
C         3.73227438667115    2.04138852113061    2.43835698424417
N         4.72607886849431    1.47728388025914    1.54157588109118
C         4.78128338450136    1.21743617483817    0.19720456411574
N         5.87512754755595    0.74649010059944   -0.32430393250012
C         5.60655473323849    0.61571167903200   -1.75523412008941
C         4.10421438131328    0.41742273316498   -1.89856769594176
C         3.55126409120916    1.23595022886267   -0.73106320851630
C         2.98412118490158    2.62329183806813   -1.15196487748547
N         2.23791014784108    3.27035453533528   -0.05321072973091
C         2.89483432450578    4.10049139184166    0.95067839913929
C         3.61610684055017    3.57870488625001    2.22601327706709
N         4.90051581232914    4.31663956963017    2.28790937124591
N         2.48205700114678    0.50213708277600   -0.04059129766233
C         1.36559104919655   -0.09803483293378   -0.55731759069900
C         0.69891718341178    0.53497368964325   -1.75309291462135
N         0.74673717274167   -1.13965460626922   -0.11144190238986
H         3.21802695435348    1.97848124151607    4.52226256491644
H         4.92786957587074    1.88529846134884    4.34780326091428
H         3.98313398949781    0.47348095979234    3.93318066252087
H         2.75813997425816    1.61300965605175    2.19038341728160
H         5.47550590567649    1.13102851156703    2.13777726801616
H         6.13608204365236   -0.24388623969312   -2.18361300615542
H         5.86245123614401    1.61724292771225   -2.10806783818252
H         3.77723741886266   -0.60915560931504   -1.69416551996509
H         3.66095795542059    0.72981359265011   -2.85270179562227
H         2.26036561711726    2.68890045353922   -1.97214183643719
H         3.80206271694744    3.33179301777684   -1.33440503454338
H         1.42858829884734    2.75750222946734    0.29268633868950
H         2.13005951982262    4.79744308153271    1.31949745708874
H         3.65419366937521    4.68490138082237    0.41562765270034
H         3.13570164292975    3.96275813407917    3.13620788758927
H         5.62799745446650    3.99288181206314    1.64578085050959
H         5.19941204084117    4.12595646920496    3.24220822614006
H         2.82783858941131   -0.11155901238276    0.69023551446526
H         1.47915217316292    0.93517116353960   -2.39514803191136
H         0.06589396225409    1.34204970128027   -1.37306320409208
H        -0.02104784914954   -0.16572240293608   -2.18793059707557
H         1.27536402364238   -1.58528634742771    0.64021685874136
