39
 energy: -52.265235457727 gnorm: 0.126083248369 xtb: 6.4.1 (79825abcba525fcdf90b791dcacef51065a7a4e7)
C         3.75721101358952    1.42081806849425    3.54111000379500
C         3.72649872627284    2.04703754548848    2.14075381131020
N         4.91444826366436    1.77885071055912    1.34896503180829
C         4.89923990696154    1.24984399489160    0.08491471581620
N         6.00669715462787    1.05526525455970   -0.56772140652644
C         5.57758526999129    0.58164128203964   -1.88238443017353
C         4.07730684337055    0.32465972700619   -1.87855593638718
C         3.55719010311242    1.07637524834474   -0.65250115549423
C         2.98532668629179    2.46430292563339   -1.06499962181251
N         2.40189168027350    3.40436233443386   -0.08588083521575
C         3.34359276850387    4.16084814898500    0.73228677632015
C         3.38449462881376    3.56499615165644    2.16834447443791
N         4.46864527301499    4.32432856678912    2.83626423581723
N         2.59455803154703    0.25169184301169    0.09024624854554
C         1.35518110198949   -0.10653761449382   -0.36727429955714
C         0.65747520941096    0.69385744324067   -1.43853834895541
N         0.73444070314529   -1.10663824582390    0.16304359099756
H         2.82827943833706    1.68202428769481    4.05501222001956
H         4.57096899049714    1.79947568814755    4.16643949972866
H         3.74969778269332    0.32842229944697    3.60769063510550
H         2.94645089588239    1.41442979207554    1.71032377540164
H         5.81049716551667    1.83615781321271    1.82938361098229
H         6.14112059329510   -0.32121458855379   -2.14713985483999
H         5.86443380466288    1.32670840908345   -2.62779195780361
H         3.80449852444142   -0.73313119613197   -1.78258069328889
H         3.70423251794533    0.67799623953310   -2.84830076377176
H         2.19956153100558    2.45766907960938   -1.82877050555652
H         3.86523630436224    3.01808649374315   -1.41623957182156
H         1.57487863023709    3.07168202315695    0.40710734542774
H         2.99400742735292    5.19986622516706    0.80215226420467
H         4.35187175941110    4.08450472373131    0.30568847356032
H         2.45762111717158    3.63073572535166    2.75428311098719
H         5.33719759110181    4.03536955579554    2.37964927027711
H         4.39183082679882    4.08235210489313    3.82213047331885
H         3.05093079646851   -0.35220079037518    0.76651039534612
H         1.20862255238537    0.64566162967620   -2.37399181745433
H         0.61009913633254    1.68557945756345   -0.97945707237386
H        -0.36568942824663    0.34412283769028   -1.60950119394466
H         1.06360576215092   -1.38611897858893    1.08855197427428
