39
 energy: -52.259857410908 gnorm: 0.113448920819 xtb: 6.4.1 (79825abcba525fcdf90b791dcacef51065a7a4e7)
C         3.97774107448487    1.71300443285117    3.86060552375819
C         3.75290471626076    2.15484439125179    2.40860083023118
N         4.63970247154047    1.32930529598979    1.60725650281054
C         4.53775311815699    1.34621722139091    0.24079283475266
N         5.67694092090275    1.14874542600323   -0.35377627556186
C         5.41722111604368    0.85633826213893   -1.76226455248201
C         3.93020569737325    0.54943743877782   -1.86943999960523
C         3.29797693293608    1.25729691134251   -0.67026121229626
C         2.76870686182054    2.66518176651392   -1.07183243929479
N         2.46744268016068    3.50470583121059    0.10597101077881
C         3.72920017146369    3.92267357144296    0.70742008414180
C         3.82337399340153    3.70075626452213    2.24392855840581
N         4.99789809530978    4.42370330480615    2.78791923517356
N         2.27417746803056    0.35944788693636   -0.11877346490638
C         1.25986847415807   -0.38377909828778   -0.65960567519706
C         0.71987065785923    0.04704841588321   -2.00043468610550
N         0.62516478118716   -1.34055174927631   -0.06927162520668
H         3.14487840291352    2.09482671087087    4.45708651328767
H         4.77056093841750    2.32695469361825    4.29778096205106
H         4.25690481280306    0.65485792698604    3.87514967198200
H         2.76549275156259    1.80297127857272    2.10015287520449
H         5.64134036701212    1.30353583708316    1.78904549621985
H         6.02652244263818    0.03254587094603   -2.15333259328354
H         5.69971646574469    1.75357608281533   -2.31742233396877
H         3.77937126108746   -0.50187342706603   -1.59639840273058
H         3.54752413368488    0.74592111927777   -2.87908605899740
H         1.86807600077813    2.47871486072598   -1.66757652217807
H         3.52770817944776    3.09585172139016   -1.73720983012429
H         1.88699174445893    2.89982282719071    0.68463965304448
H         3.86411629037793    4.99614344473445    0.51739445728524
H         4.57976250490892    3.44657472793981    0.20312397298932
H         2.87455276793776    4.02095269945530    2.69553991326512
H         5.84109470276649    3.84855625798804    2.85576479862647
H         4.78116666396686    4.86919341498033    3.67727369377381
H         2.57908770323764   -0.17388560078017    0.68923690559099
H        -0.07969137034218   -0.61607593129707   -2.32000640905361
H         1.56617797915090    0.00462247510970   -2.69215472855672
H         0.16810935792461    0.99250947446587   -2.00887972942476
H         0.92809088742645   -1.61335109287179    0.86712635261642
