39
 energy: -52.256941912011 gnorm: 0.115000653014 xtb: 6.4.1 (79825abcba525fcdf90b791dcacef51065a7a4e7)
C         3.88431773001477    1.65281775356561    3.72219563581439
C         3.70101159771202    2.02634082643208    2.24538456595951
N         4.79554369465801    1.37068434585695    1.55098422004512
C         4.76693098022754    1.12202394920710    0.20367135640461
N         5.85996026062733    0.91820065934313   -0.47012344966165
C         5.60795040138918    0.49649923014242   -1.84687850448269
C         4.10610738960244    0.25255245206146   -1.80390084098147
C         3.49024157345553    1.05495179335028   -0.65687311806368
C         3.28103309578218    2.53118533593487   -1.10463685916852
N         2.48622816092688    3.40206196432207   -0.21433313003541
C         3.26650417317470    4.17666672671077    0.74463859970560
C         3.56440081560407    3.57345650748643    2.14691150284092
N         4.73454833193295    4.35350179319494    2.61634657186684
N         2.39346160849942    0.35580556849750    0.02628515034755
C         1.19768243309760   -0.10159656229562   -0.45807425959052
C         0.64951262596886    0.65195630481598   -1.64411826233922
N         0.47751646762093   -0.92871841473713    0.22309195201845
H         3.56638594103255    2.43131436343865    4.42083750079550
H         4.92494636305250    1.37328807258938    3.91081118951751
H         3.34343678367830    0.78265637119292    4.10701367103141
H         2.73375234291897    1.73721685065513    1.82734860065650
H         5.72489449634128    1.32588755957750    1.96485629892435
H         6.09949072636683   -0.45979900827569   -2.06297572584562
H         5.93420866745561    1.12473748860415   -2.67869081550018
H         3.87361663495824   -0.80708261638894   -1.64365464585322
H         3.57931343966459    0.51188047188162   -2.73108652783151
H         2.85812886021201    2.53646810101667   -2.11554781634711
H         4.27668292258751    2.96451854779611   -1.26335179661401
H         1.65590121103271    2.97310715416214    0.19090637044317
H         2.75993739414067    5.14858114856608    0.81827361670628
H         4.27818627489366    4.33242055594987    0.34880905858465
H         2.66862349111434    3.75724883065125    2.75563447229522
H         5.17159519208154    3.85177719259261    3.39328938331705
H         4.34969170848439    5.26975205018948    2.83715452379925
H         2.74517507623861   -0.17391527196096    0.81747987229012
H        -0.23615573706499    0.14669399648986   -2.02023124612092
H         1.29910046177494    0.58537571846821   -2.52168041356579
H         0.28658381939421    1.65471200047160   -1.39678819407684
H         0.98976851961195   -1.58805297378195    0.81122515021423
