39
 energy: -52.271153812148 gnorm: 0.105851384075 xtb: 6.4.1 (79825abcba525fcdf90b791dcacef51065a7a4e7)
C         3.53639564989021    1.50896586427286    3.70145932075568
C         3.56362667156068    2.02032717107435    2.25513302769955
N         4.61081901514741    1.33958901480408    1.51347157448275
C         4.73277242310582    1.41070841743240    0.15039700058569
N         5.80999536622667    1.30856954518736   -0.57030748478975
C         5.50412648473300    1.02383410860128   -1.97108069237933
C         4.08131643455742    0.48552528458294   -1.91888112889454
C         3.47162347133490    1.19381842804406   -0.70834259742955
C         2.86058985243724    2.56099258155140   -1.13378245128889
N         2.60017545496903    3.63269219014276   -0.15071269789559
C         3.66856110826496    4.10776040297856    0.72183090653577
C         3.66993798982742    3.57120601457112    2.18165345144000
N         4.89596741863821    4.05046572287380    2.86374375150405
N         2.47052575124456    0.37925311838711   -0.00639961208655
C         1.34482092975964   -0.30314533707716   -0.38167255654179
C         0.47063015889910    0.33807251132641   -1.43032059642951
N         0.96328523861881   -1.42715261459085    0.12606284040373
H         2.90486566063287    2.19485632019932    4.27239033749166
H         4.48439523400357    1.43175561078812    4.24178886034262
H         3.08562880054060    0.51189138384906    3.67978674617230
H         2.63056738458155    1.66286113870926    1.81291625535991
H         5.47012123046364    1.34179214681391    2.05990061836952
H         6.17932513196107    0.29644391574865   -2.43779961086651
H         5.60234669687431    1.93598013015147   -2.56385547803102
H         4.25049982818311   -0.57222298580409   -1.68414106443034
H         3.56721407601427    0.64172855431440   -2.87582185273136
H         1.89144168745766    2.40787412172058   -1.62176145121178
H         3.61421323819125    3.06140086536804   -1.75501516927959
H         1.74785961284120    3.41304200508296    0.36209883007007
H         3.49638765107217    5.18859617510863    0.81563935088273
H         4.62804096314963    3.89178991520077    0.23480304060306
H         2.92527678184789    4.13655325233811    2.75837046990618
H         5.77155151361089    3.86014326484088    2.37027892890231
H         4.90655165963328    3.74250148094414    3.83401758641856
H         3.04914820643171   -0.11012795664589    0.66887655914561
H         1.09751122568194    0.68735676114917   -2.24651915518848
H         0.00830946647287    1.20173075728284   -0.94363107169177
H        -0.27114123248788   -0.31167514116204   -1.90572745526130
H         1.56537000414581   -1.92167852155132    0.78633775922654
