39
 energy: -52.256692908283 gnorm: 0.126168729713 xtb: 6.4.1 (79825abcba525fcdf90b791dcacef51065a7a4e7)
C         3.90169784742066    1.47647026122569    3.71806015312316
C         3.71782952708022    2.01186574367328    2.29200417118759
N         4.79584357658004    1.44305137184708    1.50180567187005
C         4.84177143014667    1.22606092881722    0.14950822620800
N         5.97028264629393    1.13411606521732   -0.48944790520927
C         5.70719419883709    0.65361773954588   -1.84469746514018
C         4.20017297589104    0.61830055969033   -2.05571706723201
C         3.58751211629595    1.08632617567602   -0.73495717656273
C         2.90519289919010    2.45224608917764   -1.03864995741403
N         2.18118993982435    3.02273637625235    0.11596784299556
C         2.75881200641810    4.05706368443617    0.96743113090928
C         3.51196715292614    3.55325740069886    2.23151610243836
N         4.77371973442978    4.32696788424010    2.31775788167087
N         2.65245392111238    0.16498850965233   -0.07522992057689
C         1.31139505909153    0.04120723497389   -0.32007257083738
C         0.81126843254894    0.65452526628338   -1.60410792818830
N         0.57821828704913   -0.78677518000202    0.34600094971710
H         3.00347442675894    1.77500653610352    4.26515139651018
H         4.77433645827860    1.74711503630650    4.31961968877573
H         3.79290011469534    0.39630210985253    3.57943198333472
H         2.82918652967681    1.59464853092752    1.81223274139896
H         5.70475611750253    1.56438124813746    1.94469032058363
H         6.26316213740226   -0.29091038377048   -1.88447806661873
H         6.11167068027597    1.29415358830638   -2.63155964534873
H         3.89194134353030   -0.42600399265250   -2.18601876379540
H         4.02063820519725    1.12321727991078   -3.01345531325802
H         2.22575019325770    2.40104896199110   -1.89687680440478
H         3.75658438717026    3.10623404421752   -1.26606802323241
H         1.44631288385364    2.41599711241291    0.47581128419706
H         1.87024498030505    4.67612620428175    1.15144171377870
H         3.47138265472343    4.67871181924080    0.41044134769883
H         2.94011308020762    3.69276957677911    3.15901788350142
H         5.41022230846493    4.04062707106272    1.56992696780283
H         5.26385680849056    4.14277291263978    3.19081181134601
H         3.17488304261967   -0.19238525318912    0.71827334444480
H         1.64038305851542    0.57944921833913   -2.30274370918772
H         0.46988408506409    1.68938458367518   -1.50905224598420
H        -0.09098321492569    0.10474508758838   -1.89062527789309
H         0.97998586192073   -1.23506565640475    1.17101207057275
