39
 energy: -52.258370939316 gnorm: 0.129906787271 xtb: 6.4.1 (79825abcba525fcdf90b791dcacef51065a7a4e7)
C         4.24361258240514    1.53139431322521    3.65636393298779
C         3.75291927857333    1.92593851536911    2.25720471640285
N         4.85383990802441    1.83801108970121    1.31363685618794
C         4.81239217149660    1.20014156052667    0.10148704344241
N         5.88198421951511    0.67607357687102   -0.41964822489815
C         5.58313990858485    0.26511004075151   -1.79026728010088
C         4.14083933782245    0.62612182388608   -2.11634870551252
C         3.56978688022527    1.17898178248249   -0.80980634297913
C         3.07545299484694    2.62203373716720   -1.12087077450604
N         2.32866721022319    3.31421193942957   -0.05036526609530
C         3.13176955066376    4.07365988419249    0.90186129541667
C         3.30983581376774    3.41715498249041    2.30052780470206
N         4.29624138209452    4.36707421970647    2.86863223825587
N         2.61972879662014    0.27877762217611   -0.14237914791289
C         1.35931696471514   -0.08303141380044   -0.53501741910559
C         0.46691901467993    0.86013381598030   -1.30254440756781
N         0.76619974521150   -1.09323992500172    0.00761294538471
H         3.44088512917213    1.55501417864115    4.39819193732772
H         4.96013592609404    2.19745016315482    4.14583765218861
H         4.71682877312167    0.55152802630336    3.53911867993722
H         2.85322962430773    1.35449036142258    2.01649174154975
H         5.73598905215720    1.73514130886466    1.81185414010186
H         5.78542415437843   -0.80842658857471   -1.88730547240657
H         6.36445953669256    0.79958349513978   -2.33516842203775
H         3.57645033516242   -0.30190463845835   -2.26730966053717
H         4.10621490420641    1.19361222400689   -3.05506696313399
H         2.45228765333678    2.40849964679040   -1.99659048872983
H         3.84586235992307    3.33881759834620   -1.43228204541858
H         1.58576823875630    2.69687492035015    0.27314710033600
H         2.58969395830235    5.02791996735916    0.94867379355961
H         4.13295334736348    4.21861678925715    0.47635047571032
H         2.41202129908451    3.38297300370247    2.93258870284304
H         5.20375710149858    4.31004380662223    2.40008083585673
H         4.33298113325400    4.40974051059367    3.88510411848506
H         3.05911645942163   -0.28920307806370    0.57499942877686
H         0.74669325212355    1.17674156423026   -2.30386619841274
H         0.12513710761729    1.73192122356331   -0.73713791566720
H        -0.39157153534188    0.22811589647575   -1.55145362181462
H         1.46035024937638   -1.66425542090923    0.49250599431916
