39
 energy: -52.253467563642 gnorm: 0.135569827390 xtb: 6.4.1 (79825abcba525fcdf90b791dcacef51065a7a4e7)
C         3.66225940241362    1.59742793340967    3.82319133502610
C         3.48617703055908    2.15492455111360    2.40464134420715
N         4.36515574199818    1.25322312733510    1.68048062941303
C         4.50376175373409    1.35152598280647    0.32069110851037
N         5.66802013631003    1.39794465999685   -0.25602727963940
C         5.55885050520119    1.10714496159100   -1.68442255807026
C         4.15277229393023    0.54202916387585   -1.82752298739604
C         3.37567440859761    1.26356720714201   -0.72556578207568
C         2.79472732129386    2.67373638870560   -1.03773454746350
N         2.41302359359881    3.59232771420805    0.05463623464252
C         3.47152355527946    4.28634384476919    0.78016321544879
C         3.86757259880837    3.64001560268499    2.13824245653888
N         5.30893207379651    3.95416059202658    2.28616449581585
N         2.33322000332788    0.48473590715495   -0.04354850821442
C         1.39161854908035   -0.36973113482864   -0.55048177123641
C         0.73522645145163   -0.09409603931496   -1.88022126680378
N         0.89030327838285   -1.43738519631025   -0.02554866056786
H         3.41858447040497    2.45524547658995    4.45565448941804
H         4.65165498306863    1.21363198560426    4.08855462271269
H         2.98186824011911    0.79067112737060    4.11306936378732
H         2.46170709754362    2.07718832805405    2.03267946363391
H         5.15437037513783    0.83368968815282    2.16845779758038
H         6.33677399913879    0.36870415117583   -1.91323782461375
H         5.69542328836883    1.99990548156339   -2.29872379932288
H         4.21641933245686   -0.53295408588597   -1.62035801907122
H         3.72430990504243    0.61747110346454   -2.83507678920174
H         1.94396286305391    2.57403927302076   -1.72116498985490
H         3.57001461430379    3.22247570390504   -1.58737211042757
H         1.75009941986233    3.24060710090031    0.74346732346721
H         3.12711425963467    5.32176945200302    0.90636030723027
H         4.38447712091119    4.25074762558768    0.17214212413446
H         3.29654755443496    4.19307838319811    2.89639299873435
H         5.70648644949937    3.38113135510204    1.53785595081965
H         5.65521793510135    3.74254402361875    3.21980780799319
H         2.62064059104283    0.10777865129242    0.85399717197740
H         1.34508340409020   -0.44958349743305   -2.70657626624964
H         0.63024265710945    0.96847748360894   -2.11776824414975
H        -0.29958013758868   -0.43646026118416   -1.98205703184598
H         1.24954183555050   -1.81816468691391    0.85136611027332
