39
 energy: -52.264506916539 gnorm: 0.106215222935 xtb: 6.4.1 (79825abcba525fcdf90b791dcacef51065a7a4e7)
C         3.76436259391009    1.62773059066418    3.78960254598538
C         3.67181127603404    2.12626519151424    2.34150412028888
N         4.67153422747509    1.35302279495352    1.62545387067185
C         4.78791198504520    1.13274972835698    0.27792332107638
N         5.90910323635399    0.82667786791469   -0.30474857281389
C         5.58231169290899    0.71092057887679   -1.72482007815052
C         4.08131445983742    0.47811202226127   -1.82329352559759
C         3.52660250760358    1.21544196558749   -0.60368409171543
C         3.11164172406850    2.68987744015394   -0.88184512168712
N         2.26822041094949    3.36554547390770    0.12557479528096
C         2.86141707233642    4.25700875346717    1.11647382940593
C         3.81363386920838    3.66926027619115    2.19666323688233
N         5.19923929015399    4.17692352964758    2.05362210464571
N         2.37142518235771    0.48187028414456   -0.06901143534132
C         1.25965840325977   -0.10396539801980   -0.61167129451856
C         0.91228802293722   -0.13639725323892   -2.07908888962303
N         0.37786648935433   -0.66651355342290    0.14512429479293
H         2.75434006372254    1.56539029654606    4.20337328472151
H         4.48988673768434    2.21801885235856    4.35687241411670
H         4.08547890608781    0.58492350728893    3.87478264050616
H         2.70073874540178    1.85550565537706    1.92002504518987
H         5.57937372114411    1.22950379306830    2.06993139051933
H         6.07259786186756   -0.14522927566985   -2.20382228984639
H         5.97735641203636    1.65769768476168   -2.09977643651095
H         3.87204509592854   -0.59784756844191   -1.79051314323739
H         3.75212504728195    0.83446383879972   -2.80771410958527
H         2.53630200109743    2.66156448305449   -1.81404651330339
H         3.97284280217143    3.35664515446579   -1.01615887621480
H         1.48673966237563    2.86369681256926    0.54402416951246
H         1.98310462659998    4.79510696388459    1.49813757942902
H         3.49665095203497    5.00730658642221    0.62865005896371
H         3.39241407377910    4.06015300514715    3.13288812515551
H         5.54654847869828    3.91890012420895    1.12670360032762
H         5.77681650210312    3.52765516553619    2.58394319569208
H         2.58965361759241    0.13415859663003    0.85930345822407
H         1.60592957056369   -0.67678136552729   -2.71784222985829
H         0.89624408527116    0.91510997257025   -2.38006697159597
H        -0.02590374001105   -0.69796640808875   -2.13242523703338
H         0.59503999981503   -0.51133299134859    1.13091308762724
