39
 energy: -52.269766035264 gnorm: 0.127526224433 xtb: 6.4.1 (79825abcba525fcdf90b791dcacef51065a7a4e7)
C         3.72346252984044    1.47915366419405    3.71605671287851
C         3.54141143911953    2.01359824930371    2.28941101942498
N         4.53959967642556    1.30585123287074    1.50660059454496
C         4.64068596954409    1.28905714842651    0.14007136731895
N         5.81378168027101    1.42646088181106   -0.40327292896284
C         5.58523838152178    1.15366896082797   -1.82106983812572
C         4.19583536979724    0.55494833510822   -1.98834930857137
C         3.42446210381484    1.10681731262186   -0.78866939844363
C         2.80339197628989    2.49428127384888   -1.12443958496266
N         2.45958265805649    3.44194095064017   -0.04438496482850
C         3.61779619487864    4.01303997211276    0.63447973261089
C         3.61841042762300    3.55890507935860    2.12200633547659
N         4.85000784260511    4.17096161024717    2.67575695539930
N         2.59873050551564    0.09895157031159   -0.10983887635541
C         1.27434248394465   -0.16501915290450   -0.33350014351554
C         0.75150344118888    0.03619249431376   -1.73392351189837
N         0.43857177733609   -0.63567859144931    0.53063177358865
H         3.31720280979571    2.22470440688257    4.40478392911814
H         4.77361014521873    1.37666893755487    4.00468707256768
H         3.32698136579076    0.46335139181590    3.80968565807049
H         2.57235437534097    1.61030109102673    1.98573848312188
H         5.48900904728245    1.29604908119710    1.87472493283237
H         6.37431898043281    0.45286196154853   -2.11946149092578
H         5.67058642653131    2.06706165211920   -2.41391804093294
H         4.14627543552700   -0.52661776075451   -1.81423479618971
H         3.76995920333265    0.86175352699152   -2.95216269343427
H         1.90765680213068    2.34688862838673   -1.73823984035787
H         3.58446871300904    3.01382500455890   -1.69389556530356
H         1.77299794765390    2.90691632650014    0.48477872920056
H         3.52119999798612    5.09968640361717    0.76300353464229
H         4.60034232835729    3.79328874728925    0.19772643195775
H         2.85919815336094    4.04114818680621    2.75270324345107
H         5.75179671402997    3.80442242752870    2.36142668000348
H         4.90794166269505    4.03667809364956    3.68322750759625
H         2.94754670284530   -0.17686887588507    0.80260067737956
H         0.07825052212070    0.87904190055167   -1.86619142548645
H         0.26091828693984   -0.90249686505728   -2.00723862335338
H         1.62218798090223    0.11960106103383   -2.39222428143340
H         0.81135284165443   -0.78300399356617    1.46996897599197
