39
 energy: -52.265044977398 gnorm: 0.117968298749 xtb: 6.4.1 (79825abcba525fcdf90b791dcacef51065a7a4e7)
C         4.15447738100050    1.58420991011620    3.78721756385656
C         3.72320274515668    2.00881817146780    2.37732339339972
N         4.70889056456915    1.41208569806645    1.49278529662671
C         4.61786640685742    1.23144753362565    0.13743033307756
N         5.77164100178911    1.17252707522978   -0.45888245246974
C         5.44074241002902    0.93843251140442   -1.86334014477671
C         3.99450261659762    0.46525834084155   -1.90057199535845
C         3.33740800898507    1.17927653738247   -0.71853447980149
C         2.77532982576392    2.60942912356145   -0.96804943214916
N         2.33404395359498    3.37537345826828    0.21574859503606
C         3.39392922133071    4.12197196097464    0.88485536530711
C         3.67480854479646    3.56280630976172    2.30872855434699
N         4.89693356521837    4.25321403942098    2.78604683778000
N         2.35167436575705    0.34166093972516   -0.02199570188349
C         1.25664823079702   -0.18323150120574   -0.65375063026454
C         0.97972732146931   -0.01852520061662   -2.12725634301655
N         0.38263230074756   -0.80649513529453    0.06346313913592
H         3.62350381249192    2.13534448830848    4.56795810717599
H         5.22465141773832    1.81080747060516    3.78591396099528
H         3.96881556220141    0.53696911954680    4.04535389559127
H         2.77725373202632    1.52326860001480    2.12561069702374
H         5.66992731398745    1.63242272708620    1.74744139156605
H         6.08533350598411    0.19765123926923   -2.35176787460341
H         5.45659842405838    1.87596686568176   -2.42353423151240
H         3.83512930020338   -0.60939715943665   -1.75133067459075
H         3.66810998816557    0.72791701668260   -2.91492619953869
H         1.87364400739103    2.54152055080458   -1.58705506224044
H         3.48246456710719    3.28590858365156   -1.46466062009162
H         1.80549042514441    2.88053441181466    0.93228862298577
H         3.11997816314142    5.18573345798698    0.88139767166965
H         4.30303924407422    3.97087702569374    0.28892731323024
H         2.84696531298077    3.90874301023918    2.94256107882640
H         5.66923796698366    3.82952900914711    2.26603282636366
H         5.17643444756508    4.05353985962831    3.74437599957784
H         2.62207331168937   -0.12816272444606    0.83616847440822
H         1.21046668708021   -1.01077550592534   -2.50588295013535
H         1.57973669406374    0.78163753507755   -2.57024732444728
H        -0.10807825572141   -0.02234070092446   -2.25002824268298
H         0.54964249226353   -0.78756508140602    1.07082312172793
