39
 energy: -52.260250490472 gnorm: 0.117458574433 xtb: 6.4.1 (79825abcba525fcdf90b791dcacef51065a7a4e7)
C         3.74793476293751    1.72079484282571    3.92597297603415
C         3.58030641571294    2.01411445824298    2.42932475835744
N         4.49510526635084    1.17863797784010    1.67090543213121
C         4.61949237621036    1.20914500491320    0.30653752568004
N         5.82226092231232    1.08374560524111   -0.17082941046971
C         5.75570652734283    0.96017896064654   -1.62585427070599
C         4.34626834945792    0.45947542157614   -1.90811218266355
C         3.53787827130010    1.11420546410382   -0.78711173141862
C         2.96608284228707    2.53316547031164   -1.07543183913779
N         2.26206410455811    3.16644446032508    0.05863034467702
C         2.84203030445304    4.06217407510472    1.05350602301769
C         3.79869555910955    3.53103379596136    2.15879144150483
N         5.13289785236836    4.02796038264982    1.74520549047671
N         2.51374308577311    0.30435739313450   -0.11351676437496
C         1.26217594440414   -0.02854131221819   -0.55676242363476
C         0.62518766613198    0.61902243371328   -1.76089677964846
N         0.67532034994303   -1.02400024588947    0.01892759870503
H         3.00511196043794    2.19360005682038    4.57397572295651
H         4.67469489298474    2.11185301410965    4.35586806185335
H         3.76519098640576    0.63515825191273    4.06349884446128
H         2.52424140521871    1.89682452771934    2.17455630515055
H         5.40466016652695    1.07818514889051    2.11768152685581
H         6.53417033828570    0.28316054363841   -1.99795154058297
H         6.09577388162568    1.91174626990517   -2.04047860400992
H         4.39267705722562   -0.62422726556763   -1.74689190894175
H         4.07720573328680    0.74577620816178   -2.93284304372192
H         2.22443437626433    2.46096569059520   -1.87890031920626
H         3.71959466323372    3.27618755962214   -1.36599126359303
H         1.72265407505793    2.49761867324469    0.60578024294381
H         2.01396932132388    4.35413248531762    1.71360067990762
H         3.38093708041699    4.88682974235192    0.56980832281726
H         3.50925439184341    3.94888498844258    3.13263150683842
H         5.32690848124031    3.73324618430652    0.78505910586391
H         5.92448770916979    3.72077487129285    2.30681733263071
H         2.96843744894979   -0.24140573182857    0.61152893296605
H         1.30518509194869    0.87990245099801   -2.56755937057353
H         0.05317422301482    1.50868135402433   -1.48193390942288
H        -0.17413499993485   -0.07433331627172   -2.04152027917999
H         1.19787836674751   -1.40895532584712    0.80745000771795
