39
 energy: -52.263333514889 gnorm: 0.113751468008 xtb: 6.4.1 (79825abcba525fcdf90b791dcacef51065a7a4e7)
C         3.84456608397514    1.63969743740596    3.85889755232653
C         3.58349528492776    2.15100094269701    2.43604748733772
N         4.61199731875915    1.60312200537758    1.56881626899014
C         4.60520298757876    1.16245220533934    0.27125449314848
N         5.73020347528527    0.89989642388753   -0.32514698918522
C         5.54275213066795    0.55124523738391   -1.73230720857450
C         4.04302981841059    0.59571783528828   -1.98871451841193
C         3.43442070760933    1.21443972475267   -0.72951392241013
C         3.02037913824782    2.70081291140321   -0.93637209782740
N         2.30237088308948    3.52373201706541    0.05864045022289
C         3.09131212929683    4.30251493409689    1.00708065723477
C         3.75601113740360    3.68896787813986    2.27227214348232
N         5.15488727229395    4.17868480561953    2.30979581782949
N         2.47274863785198    0.29932291850409   -0.10008163993427
C         1.31104078634432   -0.23564744386090   -0.58788297488558
C         0.88231530150848   -0.04574742613318   -2.02146759513463
N         0.50918932984463   -0.93801964196735    0.14044697423244
H         3.10281499460973    1.96217290950684    4.59446055934864
H         4.77524670094787    2.06881529403170    4.24140516315278
H         3.94574147406606    0.55154050412145    3.79977075363723
H         2.60031495591348    1.83522295708229    2.07886700085876
H         5.45398551898022    1.35808093728835    2.08650392062279
H         6.05649860832247   -0.40882352070254   -1.86326045543872
H         6.06260576387618    1.27000559243080   -2.36962599878508
H         3.69032870451858   -0.43968806621070   -2.06677736525203
H         3.85833756816835    1.17781181216883   -2.90057610208024
H         2.28282361577072    2.59041859599913   -1.73926798555863
H         3.94626639153658    3.14542625754873   -1.32281541604267
H         1.47566292533564    3.08946757520672    0.46562013464458
H         2.42253568170527    5.07317858599654    1.41385486447582
H         3.84421313824112    4.78878119683517    0.37373545752615
H         3.24338289308233    4.06629514050277    3.16758030514461
H         5.62091665675477    4.06318838373758    1.40654897856781
H         5.68754787595209    3.83369020972083    3.10580882843300
H         2.74035343607356   -0.19888978769671    0.74281063024125
H         1.37757592111693   -0.85441616003555   -2.55243955701453
H         1.05241818247838    0.93494605235719   -2.47513924418119
H        -0.18588838371628   -0.28514873519047   -2.02749819064521
H         0.91461903523123   -1.34323216589333    0.98570104711281
