39
 energy: -52.271712376607 gnorm: 0.110648792622 xtb: 6.4.1 (79825abcba525fcdf90b791dcacef51065a7a4e7)
C         3.73930299644657    1.51956262104520    3.66336686695730
C         3.57183411624814    2.09390976408604    2.25050768058630
N         4.67691740557953    1.47570245122918    1.53868720178815
C         4.73023143338650    1.24452768830076    0.18901374512809
N         5.88563609468374    1.00281839741272   -0.35584682914651
C         5.73392581695248    0.70242586066208   -1.77836004555321
C         4.23234963979141    0.52535332325123   -1.95387021190884
C         3.50962348633357    1.11752643307053   -0.74316551608294
C         2.96603957845391    2.54541416390128   -1.04179427484689
N         2.26109954121132    3.27710872658474    0.03080271192182
C         3.04621390601649    4.18846182196667    0.85633340338043
C         3.61406593893270    3.64876816030633    2.19992898105415
N         4.94692941587178    4.22889544183624    2.49149787268396
N         2.56540923514311    0.23843068281849   -0.04025227101374
C         1.32915523269813   -0.14430415866408   -0.48623280262931
C         0.52741170788044    0.52602247013494   -1.57384575916449
N         0.68916314748651   -1.13701823331386    0.03500214441588
H         3.14573297482734    1.88508190006568    4.50557131354025
H         4.75917543091397    1.64246797449838    4.03936568293364
H         3.54088123431469    0.44344038419179    3.64317565409026
H         2.62160091680336    1.79070225852733    1.80434708932701
H         5.61382217587380    1.57828047304220    1.92427371263127
H         6.33530843890452   -0.17158089542292   -2.05633008985957
H         6.10587725381605    1.53391034011373   -2.38112465160064
H         4.03597741822442   -0.54865762154701   -2.05631869426074
H         3.93135810822254    0.94195348256431   -2.92355292878613
H         2.27760416622136    2.50327337948015   -1.89332095248382
H         3.89925417257887    3.04860252180832   -1.32498798035481
H         1.78616562132242    2.73688437220036    0.75209290272410
H         2.36570282307948    4.98054091518783    1.19716332013864
H         3.90954480369256    4.61160887795241    0.32713846937714
H         3.04104698679546    3.98458652565818    3.07492360188168
H         5.64787329799129    4.26824204915995    1.74751724184874
H         5.34144544175297    3.89991460692306    3.37042563786507
H         2.99756951082607   -0.40627695605885    0.61387704356812
H         1.08410769804314    0.72193903971913   -2.48646051331656
H         0.13365996629708    1.46437574331680   -1.17264087566997
H        -0.33286550299717   -0.13210454435739   -1.73259215721498
H         1.21731943049261   -1.54202364460712    0.80962879127369
