39
 energy: -52.258583195033 gnorm: 0.120840407712 xtb: 6.4.1 (79825abcba525fcdf90b791dcacef51065a7a4e7)
C         3.86716262619703    1.88433562500458    3.98803297325896
C         3.69535589692749    1.99355024292503    2.46729428074475
N         4.60505660909907    1.13300893994933    1.73109386242694
C         4.70093791120858    1.22417168670232    0.36712950877268
N         5.85298518958230    0.95731379415949   -0.17308369760877
C         5.68790450748947    0.92046096355184   -1.62504298928825
C         4.19463525902256    0.93301737548198   -1.91979514077484
C         3.49960493075480    1.26043370673560   -0.59747166082939
C         2.81936086229951    2.64213726763261   -0.82482443797415
N         2.06335924903284    3.21354161258130    0.30863943096751
C         2.72098395455285    4.11625195229325    1.24731602919905
C         3.85585956285700    3.50079918514920    2.11463922279705
N         5.14506366310182    3.83643830407581    1.46395933725170
N         2.54812865939131    0.24386387040595   -0.12873331860442
C         1.42211126280414   -0.24761755568758   -0.73225581533083
C         0.85675184759703    0.27938764926390   -2.02750354316774
N         0.71992366735043   -1.20755416428108   -0.23004941297579
H         3.35773615408959    2.59246776667229    4.64702583136098
H         4.89217845440611    2.03933741492908    4.33722864363221
H         3.46066895361518    0.91305106784842    4.28667515872765
H         2.64526818155124    1.78839300761792    2.24556583142530
H         5.47279162038852    0.92135923306265    2.22020542206574
H         6.14215496803089    0.07246894096346   -2.15171392000215
H         6.05330905807326    1.87757804981744   -2.00378550034348
H         3.89445257871067   -0.02479873157558   -2.36142386164753
H         3.81814888683778    1.71590811602411   -2.59044877054727
H         2.28961271542482    2.76407761183775   -1.77630449648392
H         3.65722719510710    3.34914211998719   -0.87392466229908
H         1.39060131773670    2.59564260647337    0.75948497729659
H         2.03655741965563    4.51034604311636    2.01079479639962
H         3.17104727166019    4.91384978786378    0.64256677655308
H         3.76237343675691    4.11011671399476    3.02388769318398
H         5.18191217914254    3.45406434699462    0.51590342705298
H         5.90296710512713    3.42233820998213    2.00292945698210
H         2.71991998905220    0.07473305442505    0.85725761644691
H         1.57733931354235    0.54143408181227   -2.79772740147415
H         0.26652479874907    1.15848685823912   -1.75304175160317
H         0.16196581028372   -0.53123200340580   -2.26952960423950
H         0.95838460023779   -1.45866859430659    0.73073298230215
