39
 energy: -52.266143491979 gnorm: 0.114580070610 xtb: 6.4.1 (79825abcba525fcdf90b791dcacef51065a7a4e7)
C         4.07709624451309    1.68476494457938    3.87664123521161
C         3.65030610963218    2.06934172771481    2.45395278657892
N         4.53162494888223    1.34761827933431    1.55258155644298
C         4.60630820811726    1.22835099890230    0.18946002805137
N         5.75006004208745    1.13747070846021   -0.42195542318017
C         5.51278407519790    0.77973699390681   -1.81928224291454
C         4.00535698440828    0.62607055781963   -1.96398787176029
C         3.35698119236746    1.22017840526602   -0.71280736409933
C         2.83413661887152    2.65840782035351   -0.99856194208318
N         2.37155072530602    3.52598123202749    0.10421290296802
C         3.39706855990323    4.14665387044130    0.93580691681293
C         3.73927142716492    3.62012850427968    2.35870624543088
N         5.00749336029386    4.33690630624467    2.63425631359246
N         2.29836159042903    0.38578559360200   -0.12838450383802
C         1.27565122944812   -0.37317867679313   -0.63012676336370
C         0.73056402017567    0.02106269383096   -1.98012160992179
N         0.72290957811384   -1.37242761797289   -0.02785175826485
H         3.45266534297186    2.21327844131110    4.60189814196511
H         5.07967595363073    2.03408001427800    4.14014365649603
H         4.02026755001940    0.60345667630364    4.03589221823846
H         2.61881814380755    1.80007978396792    2.21422841313052
H         5.42595184183106    1.12875571628975    1.98763137123132
H         6.16091838091410   -0.07988606598861   -2.02853407988107
H         5.96430430221698    1.53335754055812   -2.46830076331235
H         3.68787778847137   -0.42354033972682   -1.97299838728002
H         3.66498367553846    1.09102344377974   -2.89801196090307
H         1.98834617452743    2.63114369582424   -1.69477458402801
H         3.62965708484661    3.13539358269976   -1.58500754089545
H         1.56104843129542    3.12731413325659    0.57518497894418
H         3.13580156703054    5.20880442636679    1.03692769748361
H         4.34576617258819    3.94424714770880    0.42253767575195
H         2.95149053329019    4.03700106235485    3.00085795047868
H         5.63354853525887    4.23872226420807    1.83126660332125
H         5.40959369141348    3.78886885369138    3.39211882021337
H         2.54532911477572   -0.02195782560211    0.76774492645758
H         1.39134304457758   -0.17476816029029   -2.82046723689762
H         0.67943658921653    1.11336052517263   -1.95211990063850
H        -0.32886421107615   -0.20722278689124   -2.13473733146134
H         1.08520882158452   -1.59148313729454    0.90154525928857
