39
 energy: -52.267984640840 gnorm: 0.105720153289 xtb: 6.4.1 (79825abcba525fcdf90b791dcacef51065a7a4e7)
C         3.89705074005004    1.59088489237934    3.83338486146940
C         3.63756486439214    2.02599518616214    2.38513154534591
N         4.62959898654942    1.37790918760826    1.54493477867965
C         4.56490678977317    1.34457685301900    0.17650265245677
N         5.69032744923607    1.37538144623577   -0.47367869203717
C         5.46945787488079    0.94447042430696   -1.85292771461179
C         3.98455952498548    0.61857519538993   -1.92881398031819
C         3.30268669428640    1.21923413150893   -0.69874639493902
C         2.74191978323455    2.63467123653982   -1.02371447981577
N         2.42015647338957    3.51178665280176    0.12080228136518
C         3.56139289749073    4.11127169238168    0.80393263335479
C         3.74075031927014    3.57311579792741    2.25210162329650
N         4.99776736216497    4.16149998691363    2.77344348996153
N         2.38660796984652    0.28176956847555   -0.03512233189097
C         1.33709322972444   -0.38326802596793   -0.60953714152678
C         0.84371351905501   -0.02819426135840   -1.98994704766406
N         0.64485223904763   -1.23603264452189    0.06895522575007
H         2.97272071018589    1.61613859635816    4.41666377916534
H         4.59936187079900    2.21898745758176    4.38914277851980
H         4.33202956206551    0.59429517293826    3.70920632968751
H         2.62669099957963    1.69023039278277    2.14154740127906
H         5.57861651775369    1.54891429191438    1.87221561385199
H         6.03262564961755    0.01153984532125   -1.97661608478327
H         5.78625950408331    1.72988235081528   -2.54271342022793
H         3.83581513321777   -0.45186018386030   -1.74280194670639
H         3.53666288835799    0.91354242492056   -2.88632069669063
H         1.85175699365937    2.64732986202256   -1.66267207698742
H         3.58795850960343    3.09767902715672   -1.54728772248487
H         1.78001637619207    3.21297688087613    0.85469430088746
H         3.50286065087506    5.20250989563753    0.91539033808198
H         4.45963952938911    3.98748933193058    0.18565125161693
H         2.84255710607773    3.89159632103344    2.79850751255485
H         5.50278463621359    4.60931756992892    2.00481182912368
H         5.53312838902451    3.55626273461473    3.39268636863093
H         2.73243794124523   -0.06262401164292    0.85487221917428
H         1.73953286900139    0.04194628066353   -2.60129590246963
H         0.24808048559811    0.88709528943344   -1.92686781948403
H         0.10634294181838   -0.79127055828516   -2.25903377101030
H         0.92312270800910   -1.31992972651031    1.04801176630834
