39
 energy: -52.267889989095 gnorm: 0.110762587371 xtb: 6.4.1 (79825abcba525fcdf90b791dcacef51065a7a4e7)
C         4.03471144476677    1.84800407189565    3.93238243109355
C         3.61527750193220    2.11590052596982    2.48103883695078
N         4.57110138417199    1.28808072826312    1.76606130550445
C         4.73595164572752    1.20381753053994    0.40825913685794
N         5.90258185771706    0.89715417003526   -0.07670262014100
C         5.82447956385833    0.69502194962548   -1.52232986864282
C         4.36529119930647    0.87379401187515   -1.91691750618790
C         3.59933809064660    1.19338656973825   -0.63240031591090
C         2.96937614348379    2.60252251866689   -0.83490920232528
N         2.04683280509574    3.04575959908828    0.23056552991027
C         2.48699721607455    4.00416859036825    1.23862181503783
C         3.74237636275127    3.61104670534533    2.06835229435242
N         5.04099379583782    3.89891532278079    1.41351676553088
N         2.52651144824743    0.26215707118161   -0.25784518680110
C         1.31106602280737   -0.14011788787890   -0.74217546466863
C         0.58779451963359    0.52580166226454   -1.88605565682898
N         0.59473915376909   -1.06558377206491   -0.19706475724906
H         3.52331218355187    2.45336597541565    4.68553966116810
H         5.11142983944641    1.98619563343246    4.06729430724085
H         3.90048731746176    0.78009787727873    4.13082183627953
H         2.62600440018564    1.70769166910876    2.26049072328741
H         5.49285654578294    1.24813137604074    2.19706158839446
H         6.34006794131293   -0.26405552836750   -1.65330785869392
H         6.37363158297593    1.49710917039122   -2.02045398978933
H         3.81995677484547    0.03902264216418   -2.37334317714716
H         4.37033366845090    1.68051294381225   -2.66097080959814
H         2.46788369965803    2.79390910944610   -1.79025906406768
H         3.86366563489531    3.23430263644358   -0.76151385462786
H         1.58812926298018    2.23453086343110    0.64185998562909
H         1.60123445929807    4.20136767431945    1.85764243276517
H         2.75726607942146    4.96547878824993    0.78334343536542
H         3.77388901019676    4.21708523258030    2.98402939188493
H         5.28917292700693    3.33797508913457    0.59490157017624
H         5.76583364129148    3.89797715808656    2.12835354696776
H         2.83245454812663   -0.31431448328445    0.51957039042791
H         1.30381911949886    0.69110872130596   -2.68676894498982
H         0.20442901570589    1.47504416065177   -1.50072173894448
H        -0.25483039246037   -0.04583848072267   -2.28807464149237
H         1.08784030427140   -1.62072670244554    0.50414310350349
