39
 energy: -52.257527935344 gnorm: 0.121264310716 xtb: 6.4.1 (79825abcba525fcdf90b791dcacef51065a7a4e7)
C         3.64319667162334    1.53163661934694    3.74530876382823
C         3.62255522617136    1.95824629530279    2.27165016840050
N         4.67328928780334    1.20504202578965    1.60929149759104
C         4.82090552974137    1.09055171517585    0.25171865546376
N         5.98036904813118    0.91312156784301   -0.30901234289278
C         5.77985546036073    0.84583441359826   -1.75540865331571
C         4.32066333354226    0.42898528402005   -1.87324194698894
C         3.62092529835029    1.13983388642485   -0.71398833323928
C         3.17184407897786    2.57907337516811   -1.10185653660040
N         2.18783244811694    3.19608992336016   -0.18873365719786
C         2.66007529907075    3.91610168437542    0.98899283891798
C         3.70775775480704    3.49763098979114    2.05960854608360
N         5.04170910780563    4.11664906446161    1.87125905479892
N         2.60038920505844    0.28322797545736   -0.09498159612850
C         1.25676840480739    0.13678720613903   -0.31165372999800
C         0.69069362272200    0.68529327487353   -1.59762918064719
N         0.49244658417148   -0.46470657542678    0.53733058151076
H         2.86074697722695    2.13560188481120    4.21246664075343
H         4.55718598174904    1.69646694063484    4.32330108260963
H         3.45261747746469    0.45410802417237    3.76603668964145
H         2.63544483632258    1.65285969096893    1.91627811439623
H         5.49175733703043    0.90104498531655    2.13339607404668
H         6.43635494713320    0.07196531225091   -2.17128274470788
H         6.06553612393598    1.81457517750385   -2.17130212490878
H         4.27485237910662   -0.66154627956127   -1.76741410406053
H         3.92904104181834    0.66999390179630   -2.86972727398642
H         2.79891123522995    2.61513326844164   -2.13163205897392
H         4.06028050050815    3.21683279440101   -1.01113541302271
H         1.49518821184581    2.46648271090549   -0.02879178914251
H         1.73705962129237    4.24826826779930    1.48331770513470
H         2.98016297336923    4.91669220263378    0.67149725696107
H         3.46089034372387    3.83085502427937    3.07683934770388
H         5.41800056933837    3.84677251340714    0.95914664659812
H         5.56787920866046    3.82316306842527    2.69186632862116
H         2.89429392422916    0.04790241163542    0.84764108185072
H         0.02852086558750   -0.07694150095078   -1.99972968004034
H         1.54541819800737    0.58120059524556   -2.27225743250875
H         0.15471575325177    1.63375199384555   -1.49010129699629
H         0.89925074451640   -0.74899512217919    1.42991966898098
