39
 energy: -52.264361617414 gnorm: 0.122874748323 xtb: 6.4.1 (79825abcba525fcdf90b791dcacef51065a7a4e7)
C         3.63275254453609    1.80528460340539    3.83854874918667
C         3.53028438967293    2.19787951592286    2.35886599059285
N         4.56480794528046    1.49843899054647    1.61682709459548
C         4.57591495759993    1.28352041756336    0.26346489107915
N         5.74142774692481    1.21158998473234   -0.30807891281498
C         5.54159998955066    0.94223157344275   -1.73086155935366
C         4.07411846398490    0.59073250061818   -1.93045092201434
C         3.37397227476177    1.15192784299334   -0.69203940401917
C         2.82445253333493    2.57080237672121   -1.02120368991674
N         2.46171720430267    3.54648463226894    0.02724703457993
C         3.54027976876875    4.20602049800949    0.75538520865148
C         3.71216229834533    3.73796955533174    2.22859903638633
N         5.08323865050659    4.05749669770708    2.69350460305319
N         2.35629538088784    0.36962686499270    0.02264645924221
C         1.41247445618707   -0.36617049482115   -0.64181791044770
C         0.79081068827456   -0.10529836708095   -1.99108153468105
N         0.89216634316601   -1.42177510670057   -0.11103041273268
H         2.63488186417718    1.45395769761342    4.11434135470903
H         3.99450928923961    2.58851367059403    4.51108492223103
H         4.32076639662309    0.95949556035824    3.93392057586030
H         2.56199515026624    1.77775497846365    2.07629118116028
H         5.53699378601218    1.35785652950725    1.88530619215420
H         6.21468660564314    0.13468208862643   -2.04332668677086
H         5.71347838427542    1.91654655532173   -2.19368725552632
H         3.85992825068010   -0.48475628592053   -1.93237219151504
H         3.61579181930421    1.07273547397063   -2.80340338601431
H         1.89095094607327    2.31825572768801   -1.53657912698076
H         3.55952331221717    3.10056509473576   -1.64032329829968
H         1.66894682101171    3.26449723799638    0.60140933848216
H         3.32540505070301    5.28316172475168    0.73972343767975
H         4.45117043565209    4.08991508201920    0.15435386388742
H         3.06023259742710    4.23224531513816    2.96168799465385
H         5.88363727245099    3.82892561953957    2.09895017166633
H         5.18165512652289    3.66508522921377    3.62769555873718
H         2.67808748898278   -0.11926297807817    0.85194265415269
H         1.57121155252226   -0.01582448492959   -2.74216631031809
H         0.06109679032392    0.70918313366775   -1.96558305526428
H         0.20908998405127   -1.01470527405768   -2.17270909410366
H         1.17722528865631   -1.64151980941448    0.84473030495418
