39
 energy: -52.268375732604 gnorm: 0.109331197481 xtb: 6.4.1 (79825abcba525fcdf90b791dcacef51065a7a4e7)
C         3.44052969668584    1.57407018513111    3.67085964892066
C         3.55495918468512    2.10165456829460    2.23466600967378
N         4.74938019929296    1.58798621381949    1.58691525509237
C         4.72625341268991    1.29210375045250    0.24907320793635
N         5.83641225525138    1.19489177895814   -0.42051886962911
C         5.52596341853739    1.02336897977934   -1.83861512800517
C         4.08668323475356    0.53107372398235   -1.89345560174463
C         3.46675536115216    1.10662938321141   -0.61939394274017
C         2.95547176654215    2.50284956340021   -1.08057100351076
N         2.43731156529295    3.49709632377630   -0.11840413546957
C         3.45040670472307    4.13453443887609    0.71573065926174
C         3.57236323891735    3.65719683378217    2.19094240543591
N         4.81397347001132    4.24977949013281    2.74351364627168
N         2.58670019627588    0.11558889682928    0.01446612685155
C         1.40823752034869   -0.37212403232977   -0.48259562098568
C         0.59470712640545    0.31046775594485   -1.55370213618574
N         0.84799259750616   -1.40158818617413    0.05877870450962
H         3.95534344704816    2.25814517237125    4.35074659870787
H         3.98882560369827    0.62790561911468    3.69851529000880
H         2.42086685012937    1.44777368504945    4.04789389595784
H         2.81344503068951    1.61790621883606    1.59428994411204
H         5.69635915684598    1.43169000559023    1.92719765515501
H         6.35915875357616    0.44863891635609   -2.26085570798695
H         5.63289684283552    2.03653225430987   -2.23244873947747
H         4.13301664166106   -0.56318521444220   -1.83861164782574
H         3.57404761066380    0.92020853281523   -2.78239598290612
H         2.24711077072556    2.41896412688938   -1.91243925144842
H         3.86178105569447    3.00528538689534   -1.44174740835870
H         1.64064080179255    3.06785986767311    0.34928794743544
H         3.28125668829692    5.21593548571720    0.80851917332568
H         4.44410106750258    3.92496583502388    0.29968562625351
H         2.72545776437588    4.06849171092929    2.75691760692155
H         5.54250981055451    4.10145036059025    2.04093914034703
H         5.19808629456819    3.81786803688996    3.58154415829189
H         3.02952143262644   -0.39997317226821    0.76838967030681
H         0.20980027890594    1.21199484765603   -1.08438875863079
H        -0.13933748775640   -0.41626420031030   -1.91363522384135
H         1.23677792815580    0.57066797637183   -2.40131607866332
H         1.39698288892619   -1.81251134499146    0.81559882932814
