39
 energy: -52.261329226878 gnorm: 0.103495235303 xtb: 6.4.1 (79825abcba525fcdf90b791dcacef51065a7a4e7)
C         3.94751926016590    1.30699713267038    3.49703769145402
C         3.81482138293751    2.03848645105514    2.15487295311482
N         4.94228553279005    1.56463468998974    1.37105738825004
C         4.88207047191213    1.32798664627348    0.02262331128856
N         5.92155320989879    0.93227279547931   -0.65053532386812
C         5.50820718671347    0.47804625195319   -1.97704158286906
C         3.98630962725545    0.46998592791629   -1.95149965425449
C         3.53786224812361    1.27198349748548   -0.72900104891405
C         2.96245481199359    2.66088964616052   -1.13319407183451
N         2.46657625173210    3.56426270156392   -0.07451410261194
C         3.42996739364318    4.20040644705953    0.81748847671737
C         3.43231764351670    3.54522504500121    2.22805788461964
N         4.07779231228326    4.38471795309787    3.26569906555857
N         2.59020171036856    0.49828894713459    0.08449340706279
C         1.46736723603542   -0.12268648297956   -0.39230935247503
C         0.69238915409079    0.35154755116283   -1.59627924790199
N         0.86094622087513   -1.00320021683790    0.33136607339951
H         3.08369997646288    1.44725976258464    4.15230914900607
H         4.86378161696091    1.52865974393335    4.05196975433355
H         4.04364801314073    0.26852543755188    3.16514350443676
H         2.91649944872705    1.55306878388195    1.76586833774798
H         5.88198352121588    1.85760401626434    1.63206777638282
H         5.76815486352651   -0.57152391027176   -2.16046977441723
H         5.94432323363132    1.11753595417889   -2.74768754673813
H         3.71408162257308   -0.59209613374242   -1.93074221567237
H         3.59857398589690    0.83989797947036   -2.90923778496223
H         2.09500979972681    2.40710816592262   -1.75283185045162
H         3.67540049507054    3.22038294919142   -1.75203360579208
H         1.62003965696006    3.19580519021764    0.35592634368368
H         3.27852491145758    5.28463895410040    0.90779184497073
H         4.33518750248047    4.02001048715216    0.22379259489401
H         2.37031680695330    3.57394092366296    2.50746779486933
H         5.09712632525336    4.32689862151473    3.32888729629021
H         3.76684438889378    4.27446153097664    4.22878795398037
H         3.08671384232147   -0.16350248032403    0.67254395196279
H         1.27512769762909    0.30475124234150   -2.51245899279022
H         0.44239519552844    1.37351835963049   -1.29696109570294
H        -0.14422575972972   -0.35435996982577   -1.58291761006559
H         1.34035952478855   -1.35391738544760    1.16213995320329
