39
 energy: -52.273871725277 gnorm: 0.102309871367 xtb: 6.4.1 (79825abcba525fcdf90b791dcacef51065a7a4e7)
C         3.74198520538383    1.59076903341068    3.77569865261696
C         3.58222624569516    1.92070011896307    2.28582815456232
N         4.68738185590667    1.28753533130446    1.58739334842630
C         4.79822162072626    1.14079344429948    0.22942282027249
N         5.93729096428246    1.04442980355899   -0.38984402884527
C         5.70932063630740    0.69626615057703   -1.79113170045719
C         4.23151820137793    0.36512926980459   -1.94389905893277
C         3.59347565042867    1.03416647555954   -0.72566308146455
C         3.08962721451663    2.40515588053859   -1.26422671755899
N         2.55864703694652    3.40859080222626   -0.31873207904557
C         3.59009118754913    3.90506863732409    0.58575821530585
C         3.45321626168583    3.45631075063593    2.06861218032162
N         4.34768215955634    4.34725530112027    2.84593688680667
N         2.59477152434309    0.20227196098409   -0.04084302154154
C         1.26819740559076    0.01871939683266   -0.32407106159226
C         0.44292581885715    0.92432366341432   -1.20375289655683
N         0.62875437954819   -0.94391994233869    0.25142445794905
H         3.19710546410278    2.23242729128069    4.47327932433631
H         4.77353572887372    1.59644080435351    4.13969311133475
H         3.40834870406084    0.55500890823429    3.89276956525602
H         2.65964473482131    1.43795567682036    1.95456035070506
H         5.60425059366336    1.55814205816503    1.93826865277251
H         6.32584294400337   -0.19125653072406   -1.97826789129735
H         6.17535913165526    1.48233090671084   -2.38942076592268
H         4.12441824456227   -0.71958181324336   -1.82352990062932
H         3.74192298786004    0.58248987280209   -2.90175451069603
H         2.35435657831588    2.27129050771512   -2.06564670800510
H         3.90121332403495    2.86869726988070   -1.83933022170892
H         1.76324890049983    3.09153097313277    0.23306407381012
H         3.49476945617393    4.99654362988972    0.50672803853541
H         4.56431728756450    3.60889361781499    0.17636254392508
H         2.43080839650175    3.70876111936797    2.38116817824534
H         4.20591096146185    5.29820023017293    2.49667719210974
H         5.25929687915106    4.10922319482856    2.46034043329171
H         2.99619877633475   -0.58489213285653    0.45868121567549
H        -0.62368954196482    0.72720850546982   -1.13565952828096
H         0.64090999183270    0.87273807838599   -2.27830110231757
H         0.66168275718726    1.93274753919949   -0.83819147444066
H         1.24305928114310   -1.57879935853800    0.76385249901818
