39
 energy: -52.261839686101 gnorm: 0.130088637125 xtb: 6.4.1 (79825abcba525fcdf90b791dcacef51065a7a4e7)
C         3.95471512546718    1.42597591084428    3.65794149649764
C         3.73886211934420    2.04221372518697    2.26950713700193
N         4.83371198746539    1.54733521286095    1.45312685539000
C         4.76018404619896    1.21302311546827    0.12620121178849
N         5.85334175175694    0.83429257522382   -0.46694782044541
C         5.57791234405649    0.47685210458143   -1.85733283541589
C         4.08331977946823    0.66971085941238   -2.07154789087151
C         3.50562798381820    1.22449446913130   -0.76874502981967
C         3.11271342816504    2.72363306244658   -0.91614794806775
N         2.12007173573707    3.34921131934744   -0.01831945177441
C         2.68484119439305    4.15400633546644    1.05955363481841
C         3.50843527238423    3.58116444736573    2.24804814779437
N         4.73568455885458    4.40101785574567    2.38870623875221
N         2.61667085775235    0.37065588152020    0.03072469562082
C         1.42566667518104   -0.14932964176476   -0.39919701348495
C         0.73342567683677    0.51281601234993   -1.56427124699245
N         0.89596312129407   -1.19981648024273    0.13244998504369
H         3.04544034538708    1.59978930410135    4.23953097788356
H         4.87692770639378    1.86990140940808    4.04404345796384
H         4.07777578264141    0.34001808418419    3.59989307272627
H         2.77392823528530    1.75202125624696    1.84686292923466
H         5.68260103896296    1.35333804766982    1.98108729510250
H         5.87023515899847   -0.55381931683799   -2.09202413858089
H         6.23244671813158    1.16197483175012   -2.40068455020018
H         3.62709419903738   -0.32425392374620   -2.15185664650205
H         3.79839281194211    1.10243517395967   -3.03902008903031
H         2.74561116483254    2.72472865427339   -1.94864569040219
H         3.99060142778689    3.37937524599625   -0.85613530048660
H         1.45331882321984    2.68554670467289    0.37239010071770
H         1.85148830736974    4.67169986605636    1.55368522485175
H         3.28160045309157    4.88222533593190    0.49562418615299
H         2.82507300589259    3.79474936548896    3.08119745800783
H         5.36612846008522    4.19160768876405    1.61084665535437
H         5.18339406594178    4.15713306167225    3.26987688417191
H         3.09817218606293   -0.16049541186909    0.74928602815847
H         1.37296580594892    0.32246079019609   -2.42212481357744
H         0.67738256696919    1.57601886429869   -1.31332996034048
H        -0.20575528021004   -0.04779114057813   -1.60973796399794
H         1.47039753043613   -1.72294895535022    0.79530925063376
