39
 energy: -52.270796609479 gnorm: 0.120525958554 xtb: 6.4.1 (79825abcba525fcdf90b791dcacef51065a7a4e7)
C         3.76281408951487    1.70915415065683    3.88984166513313
C         3.66996063809146    1.97073407503753    2.38085335459317
N         4.62115573538695    1.15982485839430    1.64076425747080
C         4.78230154132320    1.16968291083550    0.27994191895732
N         5.93499552537733    0.98525431279261   -0.29236833106049
C         5.71951561752157    0.83554026993917   -1.73040506722626
C         4.25160661558653    0.49722736688805   -1.94875586871591
C         3.60804381146609    1.13658020132757   -0.71755205896460
C         3.09317668237391    2.57010617213346   -1.03917468736886
N         2.18335519782221    3.10210542049888   -0.00380839044322
C         2.76433378660639    3.99595905909748    0.99216324967998
C         3.71513865542218    3.50440335824629    2.12057689339411
N         5.10132999946003    3.94442324138852    1.83258176584772
N         2.53654382052585    0.33323267694915   -0.11343498871544
C         1.23451505863749    0.09442858902849   -0.46186324078170
C         0.71242737587129    0.53616709763403   -1.80623073077679
N         0.43745098009232   -0.60344834241854    0.27598064585976
H         2.94533774298171    2.16946624205426    4.45116443068889
H         4.71646011916699    2.14371208818824    4.20343259125118
H         3.85515783693527    0.63407635380077    4.07286710208027
H         2.63517686817500    1.66232745211220    2.21338664363477
H         5.49207468397015    1.22704829284071    2.16418660460345
H         6.47841255963450    0.07731699810666   -1.95841629146261
H         5.99057764942483    1.77930306545578   -2.20881560985078
H         4.10967517558245   -0.58742174843136   -1.87162594105678
H         3.75185232403097    0.75662854998851   -2.89077117741222
H         2.61497520834623    2.59598403501899   -2.02480673615267
H         3.94980993698736    3.25425158821201   -0.99007081458129
H         1.40334631179976    2.53585344662382    0.32575034057568
H         1.94938607364686    4.41363485530806    1.59884011166278
H         3.32716902123304    4.80816521969248    0.51469220206615
H         3.53011015801089    4.06224293889807    3.04865002279873
H         5.42010665611018    3.51442016913477    0.96088430418539
H         5.58099468861797    3.57141573064123    2.64938803971220
H         2.81978865804551   -0.11989883906681    0.74954809058606
H        -0.29727628422723    0.15675974708720   -1.93930214766863
H         1.50689280530225    0.31978241549014   -2.52631059321620
H         0.62258576952273    1.62680883998549   -1.77729045165067
H         0.85015143291794   -0.94761768765048    1.14445671196911
