39
 energy: -52.267048800309 gnorm: 0.099659836312 xtb: 6.4.1 (79825abcba525fcdf90b791dcacef51065a7a4e7)
C         3.68597166434573    1.36406900711928    3.68828011671079
C         3.59548038915199    1.93013000026922    2.26508728456732
N         4.71181449503291    1.48078956625762    1.45147244313132
C         4.77742482884879    1.37398591105664    0.08685129103619
N         5.93189969802436    1.15143683170689   -0.46805055602837
C         5.71032457719592    0.88176612423714   -1.88754966559845
C         4.22415604403934    0.58604701327830   -2.03157340016715
C         3.54137613511049    1.22487421985651   -0.82140011372609
C         2.80495668235350    2.55430634236467   -1.15877620067929
N         2.27390016635995    3.37682863095391   -0.05233245054885
C         3.37001158584287    3.89836681978107    0.75699297782365
C         3.52466393653799    3.48468098403634    2.24827462904946
N         4.72562084172614    4.11841734380140    2.84339300863056
N         2.66799531686091    0.25287156156059   -0.14994367622221
C         1.32845047121297    0.02496243203733   -0.31542971560468
C         0.61185974443852    0.26051531231528   -1.62158629567268
N         0.71497896276047   -0.66087834604524    0.59012653839503
H         3.18486294230982    1.97996256671025    4.43981402826936
H         4.74717858196209    1.45841182761129    3.93639285933040
H         3.39491755052754    0.31349681527658    3.78525187458385
H         2.62631304199188    1.68797280333191    1.82235513993681
H         5.61293121927817    1.83706770906636    1.76459271498546
H         6.28994713822034    0.05381990367092   -2.31341227460700
H         6.11953938200639    1.74738312186005   -2.41318256508138
H         4.14899500645040   -0.50744974677767   -1.99732549180711
H         3.79877761670342    0.82633377731932   -3.01430003652289
H         1.98063059989597    2.30910982582714   -1.83788004823195
H         3.45966978729314    3.23160608887107   -1.72171711948549
H         1.57421616276914    2.85328255558268    0.47112330684307
H         3.25535946830090    4.98831201729767    0.68266920316209
H         4.33977944883901    3.59737430345201    0.34058602041394
H         2.69023136340531    3.82134437783228    2.87844946754570
H         5.38341759853517    4.23020656220364    2.06803227716802
H         5.11521266393258    3.56102429624772    3.60096578255121
H         2.84478078073976    0.16714231649363    0.84589417409797
H         1.22693879032791    0.09901383060774   -2.50292304335506
H         0.16128828177131    1.25510134683847   -1.55603752302472
H        -0.23035515643165   -0.43873171372793   -1.63325368133172
H         1.20580205798574   -0.90211100217132    1.45263704835559
