39
 energy: -52.268933230743 gnorm: 0.105025956635 xtb: 6.4.1 (79825abcba525fcdf90b791dcacef51065a7a4e7)
C         3.61273694429684    1.62873545525609    3.70832212073035
C         3.56454270638938    2.01297350966168    2.22369085161030
N         4.62902940195641    1.21814901671034    1.63615371125490
C         4.76372597805160    1.26586016587866    0.27325858860003
N         5.91121190451112    1.37284560320422   -0.32847768148113
C         5.68521170220811    1.08015327484317   -1.74270915420024
C         4.26089174732024    0.57169177487166   -1.91495639815387
C         3.56005939312213    1.14201229895141   -0.68111017691506
C         2.95493819574003    2.53445590827527   -1.02528328962772
N         2.25688299334773    3.35516116475083   -0.01437106814188
C         3.16210437868158    4.15714844333724    0.80163176278350
C         3.71286400360078    3.55915688936477    2.12754436108611
N         5.11780015986174    4.02035673858947    2.23494196174998
N         2.58318341949270    0.19927807824754   -0.11950315401024
C         1.28282505055420   -0.11624250094265   -0.40798785425802
C         0.58728048499972    0.23803803505413   -1.69862160237033
N         0.55114452582221   -0.88646457740736    0.32560503857153
H         2.95132825298115    2.10996769171958    4.43371313867053
H         4.62181648274414    1.76679441071746    4.10746975472002
H         3.39041386995730    0.55902303740502    3.77239823574179
H         2.57411026109174    1.66631223196196    1.91904886253539
H         5.53740156206387    1.37159116944276    2.07009529767702
H         6.30746310906856    0.26087846499888   -2.12271993821599
H         5.95674197737961    1.96898198899503   -2.31655087088541
H         4.30309470772216   -0.50675342058775   -1.72070876397757
H         3.70716745872058    0.68947641482805   -2.85514380929688
H         2.23700132693792    2.32245981187405   -1.82555897314981
H         3.78221245688304    3.14969997677201   -1.40128689519128
H         1.54351902346062    2.78346774312181    0.43500917594643
H         2.71656296530521    5.12570198019301    1.06629486296097
H         3.99913855014682    4.34204101836260    0.11633657875901
H         3.16192638283366    3.95827106462078    2.99004995714071
H         5.72474554128546    3.39362419077451    1.70089956297512
H         5.48807413368209    3.93625689579853    3.17951049071540
H         2.83430506799323   -0.45346083038807    0.61613632510724
H        -0.01519976892513    1.11675904544704   -1.48408406977974
H        -0.10443636227892   -0.59436676584590   -1.85718613652285
H         1.19081029360042    0.48530111214500   -2.57783784356210
H         1.02410840348229   -1.21328074887423    1.16971477301560
