39
 energy: -52.262773245776 gnorm: 0.120331250426 xtb: 6.4.1 (79825abcba525fcdf90b791dcacef51065a7a4e7)
C         3.98439589235360    1.66182411425388    3.85427414849708
C         3.76675931410687    2.17216885566764    2.42379378587954
N         4.69400943545821    1.56863506922666    1.48250111773179
C         4.62193976104769    1.14122590244678    0.18248959794996
N         5.71297063428957    0.60861579071819   -0.28252057810338
C         5.42676759151535    0.19731531473903   -1.65573406476598
C         3.95372797984218    0.46879679673673   -1.92655068600538
C         3.36443308831729    1.17982442837436   -0.70754321147462
C         3.05962749800227    2.68015217940045   -0.98974209480737
N         2.26270669950765    3.38235460974541    0.03720030386304
C         2.93195021822624    4.24528675766646    1.00463565676387
C         3.70094150157848    3.71718760053765    2.24911864562847
N         4.98034298460892    4.46573445679787    2.27902772909348
N         2.35347348158066    0.45915813556929    0.07797429173839
C         1.34676960185139   -0.18209963194225   -0.59213345593418
C         0.68348456788572    0.60289580094456   -1.69615682209993
N         1.00765618945993   -1.41111212561940   -0.38894047567174
H         3.28680879591639    2.11774589068000    4.56190796230839
H         5.01877431137294    1.65739919899564    4.21017063798057
H         3.72522594597980    0.59890434765526    3.82511161896218
H         2.79237314052348    1.75036888455897    2.16573652550717
H         5.64339890799892    1.42013582012175    1.81954317883983
H         5.62047455030724   -0.88193724329942   -1.67826736337568
H         6.16412976290127    0.71188064548413   -2.27586230509283
H         3.46930645274764   -0.49762540139504   -2.11072772887017
H         3.90188861645359    1.05688166049611   -2.85170205288553
H         2.64264773415116    2.75211890668711   -2.00056627578904
H         4.03303200796513    3.17814301946123   -1.08341952685897
H         1.56799287404799    2.73577456361379    0.40729632576781
H         2.15603744576115    4.95651377714429    1.31890487967823
H         3.61584235351090    4.88971482544845    0.43767449648525
H         3.20268380299027    4.20101719127729    3.10022877901464
H         5.73228009333308    4.09160681757318    1.69507845827334
H         5.36359525648146    4.53606734485435    3.21953625016541
H         2.75737417496071   -0.17960254047953    0.75557643133772
H         0.21668661825178   -0.04723881118957   -2.43140106030730
H         1.43930984152367    1.03311527489915   -2.35959636401927
H         0.06504148797334    1.36119657333580   -1.20532429512512
H         1.57076382415504   -1.91357507489960    0.29914793736821
