39
 energy: -52.264203742129 gnorm: 0.114859879628 xtb: 6.4.1 (79825abcba525fcdf90b791dcacef51065a7a4e7)
C         3.52031489858745    1.42782752633173    3.63429644499920
C         3.65792001238507    1.97097334213516    2.20595859860223
N         4.86042571302351    1.49876100349657    1.54182509049442
C         4.85766430536627    1.21307524177411    0.20157189115055
N         5.97312657422858    1.17742107511832   -0.46530821974771
C         5.70850772021254    1.00274100715454   -1.89228379164255
C         4.28828678073178    0.46588139768984   -2.00019018303231
C         3.64864676942557    1.05071471079369   -0.74017485274086
C         3.04293422633873    2.42677611431614   -1.14402301259660
N         2.38280589475627    3.17768370182306   -0.05629598207078
C         3.28241082189222    4.04902366933464    0.69200048879659
C         3.47422549833919    3.51494321068250    2.14008179599440
N         4.54406434595995    4.31175024780109    2.78709688674890
N         2.68211687942061    0.18084562258886   -0.05637321108602
C         1.36540938852683   -0.07611604995607   -0.32833027747590
C         0.55916852797668    0.47555051440981   -1.47753526130245
N         0.69469870338636   -0.88812612224262    0.41835827714505
H         4.16227354111457    2.00001566578279    4.30937264942649
H         3.59105717627788    0.34489390130680    3.77166787854591
H         2.50051200459985    1.56549597998323    4.00694561455235
H         2.85096242723855    1.53047877460954    1.61543239169595
H         5.76888063226071    1.89714607625868    1.77201796551520
H         6.48706036638955    0.41895751309478   -2.39811857625601
H         5.73624956895298    1.93655400718095   -2.45820177348871
H         4.30467804836405   -0.63009576014939   -1.96668407169825
H         3.89953091979759    0.86062165549979   -2.94754713099402
H         2.22724207061291    2.29658648186939   -1.86410205337062
H         3.76602063234157    3.11995992832622   -1.59227397088751
H         1.54477727823355    2.83364697811324    0.40954829692777
H         2.96179173781134    5.08820634712791    0.84676620007773
H         4.25676242181576    4.03662079331169    0.18709843490533
H         2.55660177296632    3.82868517083261    2.65609823763045
H         5.45670858078898    4.22126900725225    2.33402811676727
H         4.55987077377313    3.87532677529504    3.70670007063916
H         3.14260340781123   -0.52254924886869    0.51238282314608
H         0.18244004846835    1.44613414434650   -1.16576211599350
H        -0.39347030254974   -0.06020343330359   -1.43326757046161
H         1.02381463055588    0.45259264651997   -2.46848702302962
H         1.26222215395615   -1.26916931689809    1.17713894494965
