39
 energy: -52.263409698020 gnorm: 0.126975147854 xtb: 6.4.1 (79825abcba525fcdf90b791dcacef51065a7a4e7)
C         3.68635668481761    1.43507385080879    3.66464002823426
C         3.63678562696927    2.01558876524808    2.24526104753680
N         4.75271272235226    1.36374865334757    1.58201980713259
C         4.73180516785456    1.38606627306356    0.21199521360151
N         5.80736846016861    1.18612240728070   -0.49045934409104
C         5.44437556495962    0.95820409088022   -1.88798749711228
C         4.04180524997353    0.37098453147779   -1.81827923977565
C         3.47072012992298    1.17241966930752   -0.64765057807167
C         2.93413793631847    2.54712585683684   -1.14342108887725
N         2.56570066923014    3.62500332964418   -0.20256200635128
C         3.57747663518404    4.10274550925441    0.73367608008767
C         3.53297048664267    3.56750668019556    2.19330372397963
N         4.74347748683120    4.19721601097852    2.77315206387467
N         2.47265769913534    0.41640664121760    0.12095374155647
C         1.40252205942279   -0.22921292290067   -0.43734155903279
C         0.46384031791247    0.48309923160576   -1.37889367590518
N         1.03082874020318   -1.44077586867599   -0.19093484285146
H         3.14414889041127    2.07424367189964    4.36657356820445
H         4.72307264380957    1.28296681290410    3.97881209556954
H         3.24955955335280    0.43167818490753    3.67958499193854
H         2.82636948034936    1.62929957340062    1.62240991517099
H         5.66294580402313    1.38013536015425    2.03830585725787
H         6.18820705723920    0.28755753852076   -2.33493730463782
H         5.42443510184794    1.85240138525249   -2.51492693900696
H         4.07401757986299   -0.69569256481157   -1.56585183225256
H         3.47727449737938    0.60552671229252   -2.72972379129805
H         2.07345342728041    2.56563900327454   -1.82143013733317
H         3.81598772160432    3.03609890560190   -1.57647188227256
H         1.72143879807124    3.30176673379869    0.26691016383917
H         3.44691277054205    5.19175573349948    0.79416958341860
H         4.55579094958463    3.88465761629383    0.28670883175122
H         2.67349532711719    4.03308210261406    2.69458433364264
H         5.55422837595785    3.86417851785528    2.24575592407883
H         4.78519711587213    3.97809982889986    3.76644601580122
H         2.97299193753173   -0.16201171970211    0.78833179098411
H         0.77733476036314    0.77811315807247   -2.37681523012696
H         0.11687624097066    1.44098210437955   -0.98066135205392
H        -0.44082600801000   -0.12962785926993   -1.44636822770664
H         1.65038117267244   -1.83774720681607    0.51729776260285
