39
 energy: -52.266474498713 gnorm: 0.117117603578 xtb: 6.4.1 (79825abcba525fcdf90b791dcacef51065a7a4e7)
C         3.74797335772057    1.55222156318975    3.75752236266640
C         3.59695747978309    1.96522959844624    2.28758694479759
N         4.73125910810738    1.46356591985668    1.53143143489615
C         4.78202930634926    1.35170664096630    0.16658253109008
N         5.89748205350721    0.94650526314056   -0.36429730292963
C         5.62068602663706    0.82672219020755   -1.79462297585024
C         4.12792671022435    0.56351589853733   -1.93348125382245
C         3.51529358305277    1.23431025333433   -0.70322778839348
C         3.00731267597077    2.64609698329789   -1.11836589232048
N         2.36820254758749    3.56666147759575   -0.15561931477594
C         3.40013163577992    4.07539567037648    0.74147703386747
C         3.56251167539676    3.51766568922261    2.18423282668194
N         4.72905894679358    4.23807130711795    2.74838560711674
N         2.52563812360960    0.34747732483720   -0.07669257273770
C         1.34192910216071   -0.21003045270802   -0.47884502188578
C         0.49975640613330    0.33765901930823   -1.60392893447322
N         0.80098187311517   -1.20655382230476    0.13846709148088
H         4.10240979551552    0.52937471706398    3.91048376860958
H         2.77599672718655    1.72802829001216    4.22760113019878
H         4.37464040691487    2.24937259839730    4.32240004509255
H         2.70261847966476    1.56704925527898    1.80225470860379
H         5.61000262008367    1.29319756763726    2.01699732342350
H         6.11263380506010   -0.05089456353401   -2.23119191901258
H         5.77257240215915    1.79029138130423   -2.28605398537105
H         3.97479681158671   -0.52142290925993   -1.88857814180251
H         3.67837952925389    0.90369359692818   -2.87508767422588
H         2.27121836546517    2.37210146143196   -1.88250494359807
H         3.83824795777182    3.22935685933915   -1.53506861149419
H         1.70320461156113    2.98881253106580    0.35578314294597
H         3.22693395883401    5.13982100385977    0.95040510814162
H         4.36525545027511    4.04626956833195    0.21981751720566
H         2.70254371924762    3.77568780782563    2.81717831601907
H         5.45262953282996    4.05264585601561    2.04950029735872
H         5.07411928707478    3.96458544763259    3.66627675061115
H         2.92556656091119   -0.17068644370446    0.69910325863805
H         0.20579790790118    1.33641763003170   -1.29211318275827
H        -0.35975157089638   -0.30625547662248   -1.81161334938418
H         0.98334148202830    0.34088194155026   -2.58604071476301
H         1.26121572076533   -1.64607112887660    0.93723753525176
