39
 energy: -52.262449476016 gnorm: 0.118747442216 xtb: 6.4.1 (79825abcba525fcdf90b791dcacef51065a7a4e7)
C         4.08671832008435    1.46809653427980    3.74113837996617
C         3.80932719836445    2.01357712817883    2.33415698899636
N         4.90474659132537    1.72664572127036    1.42431937881544
C         4.79160154250526    1.35421116420564    0.11039651277926
N         5.84233856227952    1.00870747266180   -0.57285693790488
C         5.51408044193438    0.59446189546095   -1.93573725168729
C         3.99726966725933    0.54652535849278   -2.05353665472759
C         3.51553805002316    1.12744825551121   -0.72339710881867
C         3.00712754127010    2.57850287533188   -0.96729312320235
N         2.32203357837539    3.30157388846792    0.12385136239591
C         3.16636110955305    4.12578096256768    0.98190945570958
C         3.52575286068812    3.54313580987890    2.37845393150447
N         4.71055281852299    4.33789617392742    2.78180262429343
N         2.49862181839826    0.29163438338624   -0.07091456080239
C         1.26755265024562   -0.13041605764122   -0.49523834575464
C         0.70372807719824    0.23862910935403   -1.84466041918092
N         0.39554810260337   -0.85067495489098    0.12733065194367
H         3.65494745836492    2.11590081292843    4.50870700050125
H         5.12498245123723    1.25965290204977    4.01532711452451
H         3.63814629275809    0.47097125271623    3.78953527998681
H         2.91730844160599    1.54653634451921    1.90976018452351
H         5.87888075026169    1.92520336972894    1.64483526857552
H         6.05711043134062   -0.34309166701688   -2.10581948607225
H         5.98049299670746    1.40723946389231   -2.49688914110706
H         3.55838948861281   -0.45718622727535   -2.10358170831704
H         3.69339417789574    1.11960249275727   -2.93879281131205
H         2.29980225444154    2.31316211313823   -1.76108282658117
H         3.81013916596932    3.19528835011678   -1.39041802884808
H         1.68942991692481    2.64766680482531    0.58198045144681
H         2.82644826485708    5.16712749427169    1.06380157563826
H         4.10892507699825    4.25611857968566    0.43507654712775
H         2.71227908886917    3.59446795055194    3.11490876429461
H         5.58363576383567    4.14104437718077    2.28647121492635
H         4.75791953739593    4.31451725008657    3.79846142881816
H         2.96319927323857   -0.24317879953660    0.65602302664602
H         1.36357024279256   -0.12220821093796   -2.62923939233640
H         0.51912181826113    1.31282573335713   -1.93704439359067
H        -0.23589183981850   -0.30720812786019   -1.97726731016690
H         0.63037294730260   -1.11046438510806    1.08670108340204
