39
 energy: -52.266061599054 gnorm: 0.120226693277 xtb: 6.4.1 (79825abcba525fcdf90b791dcacef51065a7a4e7)
C         3.75898029882988    1.53542540642044    3.86111394571000
C         3.71810140375060    2.00937906052873    2.40241987744345
N         4.84344971681256    1.42793074216812    1.69137362533897
C         4.85935128248330    1.15938939472431    0.34767154836266
N         5.95684453039695    0.95549530612460   -0.31880584582470
C         5.61696607637375    0.61900846124792   -1.70012940518156
C         4.10733360384541    0.61127416373177   -1.89465320353453
C         3.60689246788057    1.14091359236269   -0.55009055767375
C         3.19127876271693    2.61282599970798   -0.84037506669020
N         2.19603804004917    3.31393107599045   -0.00327933272263
C         2.61404693978899    4.12567430666178    1.13461848395860
C         3.63255017762033    3.54358309172698    2.15579194052485
N         4.93428200283839    4.07632552718598    1.68700106196279
N         2.49364431616228    0.38062090142911    0.03392184294093
C         1.34991215202808   -0.10415238758602   -0.54103914034619
C         0.77724252525141    0.54350989561134   -1.77700656228997
N         0.67148849602781   -1.11947963763257   -0.12198201064002
H         3.04989256043724    2.14530376976252    4.42722436634757
H         4.67945326329834    1.69717074474023    4.42961071824722
H         3.51933924298088    0.46849085946831    3.90628898373518
H         2.74708678387972    1.64968540597872    2.05358140572133
H         5.79050297033396    1.67675168943446    1.97095908715691
H         6.09803636086673   -0.35393599661836   -1.85750373784775
H         6.18191753987633    1.24074761771539   -2.39820515199989
H         3.71280666172128   -0.40229242801495   -2.03461218467419
H         3.76692167596941    1.20214254990883   -2.75455461950804
H         2.78891413634056    2.65302671520337   -1.85885602569501
H         4.02622233069091    3.32334584689015   -0.79223514602754
H         1.47277073962326    2.66169761157657    0.29528396541747
H         1.65741973615849    4.38247420442651    1.60955833590175
H         3.07333211922002    5.04356733935623    0.74606931714553
H         3.37054239464708    4.15080450438933    3.03293181335530
H         5.15124842188451    3.73283980135885    0.74821418892594
H         5.71442466605474    3.94711347551683    2.32814611023271
H         2.84502296543126   -0.19713631982756    0.79090615150905
H         1.42249256567008    0.45602616753849   -2.64715505432613
H         0.76873556393410    1.60034418463432   -1.49497539584026
H        -0.26462597685551    0.30412146219504   -2.01282780576321
H         0.94038488764918   -1.45517492599968    0.80431615028847
