39
 energy: -52.269822772733 gnorm: 0.113975605298 xtb: 6.4.1 (79825abcba525fcdf90b791dcacef51065a7a4e7)
C         3.89584523523949    1.56595406209529    3.87573410438750
C         3.69298725035800    1.98265939113855    2.41310057154647
N         4.70609494861096    1.26873151297352    1.65547433056470
C         4.87622106920913    1.17938366838904    0.29864838027536
N         6.00251035215231    1.12016043323779   -0.34805201536455
C         5.66302023027407    0.93218371804464   -1.75738049202088
C         4.18138434036562    0.62373058227945   -1.92017267933849
C         3.61405558200292    1.09930654992544   -0.58197479821500
C         3.06480863799073    2.53728584396812   -0.81450293225164
N         2.13011408028734    3.17526514529116    0.13529188081251
C         2.57987385208759    4.03105309648963    1.22790941795641
C         3.70367509828114    3.52041602048540    2.17410960405733
N         4.98826315004522    4.05031117548185    1.65726359654500
N         2.59274990715851    0.14631401521061   -0.12680794911513
C         1.32857508116844   -0.07173780278456   -0.60432649846769
C         0.87947353006842    0.36980336233672   -1.97486712490874
N         0.41218334626338   -0.58400998438527    0.14704582700146
H         3.11311270926992    2.08492736784540    4.43540771400798
H         4.82888491677141    1.89781841272228    4.34040992870395
H         3.76791922123359    0.48917877986409    4.02408461723087
H         2.68870126455608    1.73646720850614    2.05992035334430
H         5.60513353124724    1.22626141221223    2.13183099953736
H         6.29907862960544    0.16710553239316   -2.21879278333321
H         5.94784624398552    1.92344383991629   -2.11698722813390
H         3.98100153658977   -0.45004461248083   -2.01718211500816
H         3.77169505199905    1.13349454386877   -2.80149644015416
H         2.51359223810291    2.44502353385874   -1.75708715094814
H         3.92925739830251    3.18335419445794   -1.01352728552469
H         1.45458234234110    2.42977321913704    0.29517553125376
H         1.69379285123535    4.11444467903319    1.87176962214905
H         2.78497845370090    5.01005743651499    0.77633046443584
H         3.61009332472512    3.95645554159135    3.17802806050774
H         5.34419333590148    3.63893985334682    0.79096976637320
H         5.65317472773921    4.08660112191008    2.42730316503641
H         2.73179887171030   -0.16835870145402    0.82814863233991
H         1.56160505778000    0.02737172641931   -2.74855735614201
H         0.92940846571941    1.46245103320224   -1.98670896997747
H        -0.14894615147868    0.00209877212418   -2.04939738186092
H         0.63333302974484   -0.88635844302414    1.09715271869046
