39
 energy: -52.272375538044 gnorm: 0.107647417188 xtb: 6.4.1 (79825abcba525fcdf90b791dcacef51065a7a4e7)
C         3.52707027532528    1.63307344134203    3.67375190321419
C         3.61708276236276    2.08879025688644    2.21145525325138
N         4.73003658871809    1.47510043631354    1.50803763001442
C         4.72964588502882    1.23895720973651    0.15817139942428
N         5.84867644864713    0.94194199945286   -0.43327507782574
C         5.58575699189911    0.41684172660053   -1.77190818970069
C         4.07608987464343    0.30206586846700   -1.92881975649882
C         3.50300312065202    1.11381835307176   -0.76630633058740
C         2.97022591223842    2.51384275847784   -1.19010594502212
N         2.70006603511686    3.54387756410362   -0.16598503173001
C         3.76736339580864    4.06633279401540    0.68041135716425
C         3.60130640569913    3.64436133087841    2.16814098408125
N         4.71757043465877    4.31464210736987    2.87719912059684
N         2.53201975666057    0.32810667599613    0.00718279811983
C         1.32040290643180   -0.15237064600591   -0.41094964214227
C         0.40966438021839    0.55487723178967   -1.38326039863109
N         0.87194286059373   -1.25980490903561    0.07816172472425
H         2.74509419730716    2.15850843279387    4.22843156957293
H         4.49157567580407    1.83209816078208    4.14992321105696
H         3.32575920295028    0.56076394977080    3.76003143011775
H         2.71932886131075    1.65151113142590    1.76787650223438
H         5.65251704180750    1.72597444479127    1.85886780181544
H         6.03311244755617   -0.57529045897726   -1.90741849586627
H         5.92450771615073    1.20434811734345   -2.44875464453694
H         3.69166438684006   -0.72426001390863   -1.96662834580929
H         3.74914268712511    0.82607717684309   -2.83598780814144
H         2.03690918115786    2.37207919824092   -1.74655884430644
H         3.68433398850524    2.92104763212179   -1.91710011337291
H         2.07048747981682    3.11844189671059    0.51246870009246
H         3.72350023066827    5.15818282402823    0.56820976363446
H         4.78394668829989    3.80982350752667    0.35606224117360
H         2.59766967818196    3.92919920855954    2.51211916255808
H         4.47738087092298    4.64897143789547    3.81363413517446
H         5.21373316910611    5.00175146395282    2.31320570157110
H         2.88358076613605   -0.27902098309844    0.74073339785921
H        -0.46127981488762   -0.06873832585298   -1.56688847569639
H         0.92745261485683    0.90742944545791   -2.27998495954380
H         0.00323135154807    1.49944024454275   -1.00773227304095
H         1.54817217560922   -1.70365015736309    0.70165205796482
