39
 energy: -52.261633388759 gnorm: 0.124087995608 xtb: 6.4.1 (79825abcba525fcdf90b791dcacef51065a7a4e7)
C         3.76637328370958    1.50249470080311    3.70010136185001
C         3.65200202748287    2.09743131998131    2.29046979221482
N         4.69616322480207    1.50349493423830    1.47374175109343
C         4.71653241916129    1.27608423696472    0.12253042199167
N         5.84044099970357    1.04311073465624   -0.48805062130009
C         5.69175358319109    0.51792631594195   -1.84409962977203
C         4.18977344869005    0.49820275431382   -2.09018129006559
C         3.52487640547861    1.04908815719364   -0.82794313979313
C         3.07421056652045    2.51434206233468   -1.09897319729141
N         2.45671439374694    3.33536436649066   -0.03718105857488
C         3.23131506052984    4.20660968274202    0.83997078554049
C         3.52332075897259    3.64809210846788    2.26185863174054
N         4.69737899595449    4.45145882935237    2.67932035941035
N         2.58065768333643    0.21398918307441   -0.07329246731152
C         1.32390936379353   -0.20049685889698   -0.42328323812284
C         0.50134760198124    0.48655134788312   -1.48459813982253
N         0.75296831686863   -1.14290643419537    0.24950758163332
H         2.90207260216437    1.85850898729407    4.26709007866199
H         4.59993617059557    1.64894157718551    4.39317194512001
H         3.52560704067447    0.43520185975588    3.67298028967615
H         2.65258205275433    1.87616079049851    1.90819206421358
H         5.59453988033196    1.61118498547363    1.94098043495623
H         6.10550908686831   -0.49024074224466   -1.96747621126229
H         6.26901230636509    1.20158733144080   -2.47053355855098
H         3.86680631399585   -0.51034975640315   -2.37491153858539
H         4.01954346016691    1.23632529841778   -2.88430536151671
H         2.38192925140018    2.55718977538329   -1.94734075088691
H         3.94315348000670    3.08974638144444   -1.44268057020872
H         1.72601401626828    2.85965112321390    0.48954276703735
H         2.64136937922122    5.09949896365732    1.08768530296441
H         4.16621038806690    4.56244505846363    0.38853656322732
H         2.68478340213138    3.91082994456370    2.92107347352396
H         5.51700778541136    4.21997508279401    2.11275034147600
H         5.03854826993881    4.19938450141543    3.60476477205679
H         3.14320288561167   -0.36634110404604    0.54075579257284
H         0.72646795841659    0.09371056885203   -2.47260439871326
H         0.65461429969578    1.56779493075502   -1.54732203919961
H        -0.55950544200602    0.26679202953938   -1.32741950349368
H         1.27536238850124   -1.69335615256228    0.93297990748732
