39
 energy: -52.268541153634 gnorm: 0.113123478708 xtb: 6.4.1 (79825abcba525fcdf90b791dcacef51065a7a4e7)
C         3.67241670589395    1.61919749425600    3.73201292462320
C         3.54258781275582    2.12049032224489    2.28773403344495
N         4.56844831369998    1.40759699475689    1.54647085921445
C         4.68774326538959    1.33887826351086    0.18303803994289
N         5.82990392439569    1.08910394811930   -0.38559028268964
C         5.47898582304500    0.80536044148988   -1.77596492677245
C         3.98034861142319    0.56725436372766   -1.89547029642456
C         3.40590629955473    1.28006434497132   -0.67042910361108
C         2.90650758153505    2.72325647428031   -0.97262666735860
N         2.30276895493489    3.51968335420874    0.11548435139374
C         3.32098377636165    4.26034502139661    0.85245710357890
C         3.77320742780543    3.65775110206538    2.21309982183306
N         5.16937725937034    4.05773514151844    2.51110604149082
N         2.43628399069407    0.40933364065666    0.00787579313695
C         1.36457454776249   -0.26758064655379   -0.50878121524930
C         0.83868602803576   -0.02289280494139   -1.90111793029588
N         0.78052294952150   -1.18436342368850    0.18774591015797
H         2.93167305802893    2.22948603202764    4.25554401383632
H         4.69408997720585    1.92886148239028    3.97057646902647
H         3.50709513031754    0.53867506910493    3.78640056988118
H         2.61482741588082    1.80262912977918    1.80590199722074
H         5.43584054249081    1.08512602232849    1.97148021229080
H         6.03046407061634   -0.03950755740787   -2.20594867462187
H         5.80380217926259    1.74181050636761   -2.23487134339160
H         3.74650377323326   -0.49823236999962   -1.78316768225205
H         3.53866232894938    0.86607688486192   -2.85466500938980
H         2.18313151122684    2.57911388291245   -1.78303818415225
H         3.74937270228466    3.29608518432985   -1.37972902027390
H         1.73115645827267    2.90722075687321    0.69497796209216
H         2.87696047190848    5.25966414598432    0.95664084251967
H         4.23114288778566    4.40968864486060    0.25769006807255
H         3.15074998113815    4.09248848609303    3.00700813985175
H         5.72513232353246    3.75436653211876    1.70768743315995
H         5.48581035364944    3.66345060237406    3.39473215168340
H         2.75677578760813   -0.12005344935827    0.81244395078826
H         0.08691868512990    0.75858883881391   -1.82837369596364
H         0.31232515609450   -0.95018600264538   -2.14521671588048
H         1.61991933635393    0.16318819657226   -2.64506472618195
H         1.11287077559397   -1.32344558126657    1.14337447534978
