39
 energy: -52.269923849707 gnorm: 0.109450530223 xtb: 6.4.1 (79825abcba525fcdf90b791dcacef51065a7a4e7)
C         3.83294520876369    1.59388836111745    3.75726343203653
C         3.62770366202790    2.08701244876979    2.31893242584125
N         4.69019874702109    1.52959060393877    1.50011448298515
C         4.75928237435095    1.18377842135192    0.17590000655408
N         5.91112285433113    0.88872219712830   -0.34989622799987
C         5.61868753676962    0.41004743754770   -1.69976570433830
C         4.10322347965683    0.33508888583198   -1.82075927240598
C         3.48350939405762    1.15478078057181   -0.68812180398499
C         3.07365371840495    2.56053672558882   -1.21669965262153
N         2.42950138650862    3.41272481499052   -0.19609936409669
C         3.44733818878262    4.02845114433471    0.64850664176816
C         3.58455437142998    3.63307622949651    2.14644678282214
N         4.77040282012958    4.28544830257943    2.75164036551814
N         2.42890214173839    0.42467363527039    0.02824683772527
C         1.26896378622498   -0.11158122571676   -0.46234698583846
C         0.43859167536527    0.68302553241116   -1.43913492598934
N         0.75591800973429   -1.22895051230583   -0.06861245425383
H         2.95420437081665    1.60644482307977    4.40756714551725
H         4.63228820389986    2.22693934712519    4.15339200220109
H         4.12261440165684    0.53852764550381    3.76837498528995
H         2.65368578280000    1.71418929750157    1.99300411286397
H         5.57646488761840    1.40084741315938    1.98482808253963
H         6.04482355532005   -0.57780966540325   -1.91275081416887
H         6.15980866948527    1.12307035746590   -2.32572554622413
H         3.93023372979667   -0.74779157868626   -1.81945252830159
H         3.77634568995174    0.70467832758994   -2.80106062164495
H         2.46352633496655    2.43903407350470   -2.11880748174308
H         4.02205236512677    3.04758506248897   -1.47672004632672
H         1.65015910827694    2.96332414476454    0.28173824172915
H         3.24292125658772    5.10265728445511    0.54389044866622
H         4.38641296935725    3.82298256380939    0.11901426780064
H         2.68050948617774    3.98704515745409    2.66040118352834
H         4.50898772513534    5.00546974034421    3.42958500989946
H         5.49131513121292    4.69117231615176    2.15829496334317
H         2.77371592920155   -0.21332621466169    0.73842657495742
H        -0.42296003919632    0.08177946476966   -1.71732772695076
H         0.97021312189226    1.04213378847023   -2.32509911957932
H         0.02258651508649    1.52252489605221   -0.87292914018182
H         1.23966157528391   -1.80885728340005    0.61893767375971
