39
 energy: -52.261815306193 gnorm: 0.123899309265 xtb: 6.4.1 (79825abcba525fcdf90b791dcacef51065a7a4e7)
C         4.01923026464215    1.50354987277145    3.85630535999053
C         3.69735448925394    1.94831040961416    2.42358919536319
N         4.74231236125080    1.40514797967795    1.57322727671480
C         4.77047025141724    1.23615269589601    0.21361322844425
N         5.92790606677923    1.05889478859416   -0.35134548744647
C         5.63405050703019    0.74925318846242   -1.74940362043325
C         4.14030188773392    0.64460468284731   -2.02263118238012
C         3.55984579273445    1.24182147625067   -0.73997346637091
C         3.17178485016213    2.73163710886626   -0.97102348294655
N         2.22671388868579    3.24743497026717    0.04069543503541
C         2.65218321775251    4.05637161615493    1.17782661533763
C         3.58864334760154    3.49458793752204    2.28526320234283
N         4.88864911739488    4.16357779036163    2.03924954447707
N         2.52318317003845    0.41731117678492   -0.10440260576376
C         1.30852468921584   -0.07740781904538   -0.49627816050467
C         0.71923509845404    0.21346313154528   -1.85391002697891
N         0.62023567591406   -0.86878179522129    0.25654481943871
H         3.23422013168758    1.93170231053969    4.48533845353499
H         5.01324474229131    1.89692538740311    4.08827851546710
H         3.99982245181595    0.41540014864119    3.97194041239611
H         2.77799582602381    1.59504839851106    1.95038436641946
H         5.63264719114011    1.12008293958210    1.97699897035009
H         6.23009108790258   -0.11476378994988   -2.06725029613664
H         6.01947951805179    1.67900446264120   -2.17372253461868
H         3.88815948206169   -0.40734137558034   -2.20260607877579
H         3.94971665036950    1.19621461598979   -2.95206107732012
H         2.58194616860516    2.74771249991884   -1.89441331331646
H         3.99325044575163    3.44957004873627   -1.08956984336722
H         1.63818785576676    2.45718183305650    0.29915475052447
H         1.70554975646322    4.44551088180517    1.57670677761689
H         3.01564420060744    4.98081430105227    0.71119743693721
H         3.28178298733985    3.81596775059164    3.28989846953076
H         5.07886937078054    4.10179253544609    1.03606635929191
H         5.63482581616413    3.80989280392364    2.63465912542378
H         2.83676028274456   -0.04540069008021    0.74286520110572
H         1.10900858361765   -0.33449494349742   -2.70771210866593
H         0.80131276035589    1.29174203614264   -2.01850200752434
H        -0.34199305520996   -0.04755438839502   -1.79008897282006
H         0.92922880043917   -1.25560216303260    1.14980745125509
