39
 energy: -52.261574939405 gnorm: 0.116276664799 xtb: 6.4.1 (79825abcba525fcdf90b791dcacef51065a7a4e7)
C         3.88396218925223    1.74286570116204    3.88154013809225
C         3.59904145944009    1.96488957023013    2.39036036446188
N         4.64413509908377    1.30499094614331    1.62721501533607
C         4.80879129490354    1.18773590178526    0.27183972638649
N         5.93544618428925    0.92240915078347   -0.32019643208137
C         5.62078543647051    0.75704232580117   -1.73809557124168
C         4.12424357391122    0.50269689085129   -1.85016870968798
C         3.57011072739105    1.25940357217484   -0.64222013943291
C         3.08284047903567    2.71738173763344   -0.88797072089437
N         2.08831099179296    3.24720521509218    0.06752908418572
C         2.61374736009534    4.11312574578572    1.11756156889362
C         3.62371950509481    3.49870743488240    2.12821515118384
N         4.94459526989147    4.05108079527331    1.74317486820312
N         2.49178986210546    0.45782792633768   -0.04796638638970
C         1.38712324214412   -0.15040639335014   -0.58038654913043
C         0.76391367701814    0.64181994652619   -1.70244701415019
N         0.83247868811842   -1.23393250353693   -0.15015689790542
H         3.10398064109066    2.13803222533716    4.53782532507277
H         4.90063485283842    1.98512111655950    4.20451014152946
H         3.72811278515121    0.66965848858136    4.02903655146249
H         2.62485840921705    1.61481039511782    2.04057593366058
H         5.55289992796462    1.18141151900118    2.06978067746447
H         6.10538770778555   -0.10754038024989   -2.20764173748986
H         5.91917130806623    1.71604734080364   -2.16741449744064
H         4.07716649739625   -0.57334615684903   -1.64408044693427
H         3.75107951189075    0.69619047685025   -2.86394628880182
H         2.71701885398275    2.78340310168786   -1.91881143011565
H         3.98359446743096    3.34413634018033   -0.89834330166525
H         1.73449570556470    2.49788762755762    0.65998332252622
H         1.83323065239646    4.39025770821834    1.83911628273339
H         3.13211501445221    4.99967055482998    0.73055481779557
H         3.39366102966718    4.01021507215136    3.07276441712575
H         5.19699801330877    3.61173266678388    0.85455585988252
H         5.61873795778375    3.87336151928529    2.48501905578266
H         2.87932043987340   -0.14891140424838    0.66756352478422
H         1.48027664191386    0.80264151819291   -2.50377088538218
H         0.57846150116449    1.69352065092382   -1.46570712410606
H        -0.15370058430459    0.12899460127516   -2.00806556446756
H         1.37561981798817   -1.69782542843129    0.57979238070576
