39
 energy: -52.264320196838 gnorm: 0.109122081388 xtb: 6.4.1 (79825abcba525fcdf90b791dcacef51065a7a4e7)
C         3.69099879651709    1.35859403607086    3.50022982309070
C         3.67633769652514    2.14600305417213    2.18346726182788
N         4.82373267584979    1.79721800501216    1.36376517044244
C         4.72976401665930    1.27321067946424    0.10103446518213
N         5.79175706728747    1.03596442984179   -0.61040165417912
C         5.47970428486504    0.69881639800229   -1.99811553282954
C         4.00146620476963    0.34274169049720   -1.92802614572327
C         3.44463594409698    1.12241853968929   -0.73603115790053
C         3.00860887251413    2.58129302585622   -1.06020953935257
N         2.59135231310598    3.56322317158828   -0.03820570147091
C         3.50307782851912    4.24967987054385    0.87064177985708
C         3.53885052907620    3.69002976293678    2.32132656551937
N         4.73071816695191    4.24918937666906    3.00314560634767
N         2.49872350237126    0.30728354247776    0.03807577557649
C         1.29315425056864   -0.20414529185555   -0.36036106301531
C         0.62079290190694    0.30764550443188   -1.60977405932859
N         0.72512877171806   -1.13952659431088    0.32459577132586
H         2.78451925936135    1.54383436901044    4.08265485372697
H         4.64907203724960    1.46223286298086    4.01789310931366
H         3.70986286801870    0.30229137237839    3.21442082802144
H         2.81803260510371    1.79095175202543    1.60797777440255
H         5.73928832179512    1.75786665909389    1.80783621033674
H         6.08090954113174   -0.17529232749193   -2.27614861813419
H         5.66581480697635    1.45011597731243   -2.76879789449021
H         3.99706503255308   -0.74105513388840   -1.76092636497406
H         3.49330790487166    0.58174452142961   -2.87094128844490
H         2.12249912463532    2.62048185635903   -1.70370826204000
H         3.75041611410159    3.15080243005821   -1.63437652284037
H         1.83625993176402    3.21450353874095    0.54992203759626
H         3.18982274344031    5.29984450582085    0.94597537669154
H         4.54959384092806    4.19296373821541    0.54502165259022
H         2.68458686152488    3.96775408797196    2.95365801940943
H         5.66950194565259    3.98027939748708    2.69859658939850
H         4.56073309058508    4.04486902139405    3.98586813695757
H         3.06196762149316   -0.37049036657335    0.54173659336675
H         1.31387208347270    0.74672191834881   -2.32252406802300
H        -0.11469367091606    1.06125125061262   -1.31371571372954
H         0.04112945522634   -0.54721232369272   -1.97256442975110
H         1.41579254319392   -1.44124762364593    1.01377852289173
