39
 energy: -52.260723521405 gnorm: 0.126562770375 xtb: 6.4.1 (79825abcba525fcdf90b791dcacef51065a7a4e7)
C         3.93484549025630    1.53031186900070    3.65413664986422
C         3.78631537619822    2.11085182559446    2.24169064925639
N         4.92238066047734    1.74267355823481    1.41472138011672
C         4.81639895823529    1.19533793963777    0.16288505477857
N         5.88185221406261    0.86296991314768   -0.50389617518057
C         5.47846872999639    0.42218778557610   -1.83798328584555
C         3.96950250508867    0.49676668302530   -2.02331663599121
C         3.55350040804046    1.18060930610762   -0.72020133633868
C         3.07664128370709    2.65461621860385   -0.87328627276002
N         2.22620768877031    3.18209456709971    0.21359504534519
C         2.81771382977571    4.15760750849085    1.12297117898928
C         3.53385336626782    3.63808858712918    2.40211875644360
N         4.76353785839818    4.45567226760135    2.53447475663728
N         2.52060406030144    0.40191260337725   -0.02364298833586
C         1.41663263045408   -0.19803625857606   -0.56679769186431
C         0.73490625858259    0.45051390283778   -1.74563791747093
N         0.83252688807259   -1.21663304389034   -0.03010592032035
H         3.12479663810451    1.96556732919275    4.24541626990431
H         4.84960684215952    1.93203416692774    4.09961558517269
H         3.93134192081233    0.44361303757120    3.78410325754795
H         2.84620377912658    1.75165389377602    1.81612722688671
H         5.84301463504430    1.85345314112522    1.83561413685024
H         6.03015157028770   -0.47577534975042   -2.14150340728103
H         5.99576357992903    1.19580683978915   -2.40978664997997
H         3.52513604849438   -0.50540899796931   -2.05051253066085
H         3.78892863008917    1.01978072452565   -2.97109591266409
H         2.52575146785562    2.53788670542861   -1.81334557890423
H         3.89555937585695    3.35010215182199   -1.09680168947924
H         1.75343500288471    2.40040023887019    0.66426575774896
H         1.93066533036307    4.70610279021701    1.46785890966141
H         3.47451157492324    4.81727457095703    0.54168205872468
H         2.81809637449251    3.71568051753473    3.23182454922637
H         5.16080260338194    4.40237443064008    1.59334897931993
H         5.32690327802046    3.98907256907541    3.24249271555091
H         2.89632285591650   -0.31136630115876    0.59309375862411
H         1.30368543046399    0.54026988304110   -2.66737190264878
H         0.38645077703423    1.41313760230234   -1.36034964310160
H        -0.12218504577690   -0.19466313143444   -1.96369653442098
H         1.38998113457725   -1.52472254472180    0.76823643086523
