39
 energy: -52.261885132105 gnorm: 0.111720792825 xtb: 6.4.1 (79825abcba525fcdf90b791dcacef51065a7a4e7)
C         3.63175312951122    1.78045982206986    3.83863932581992
C         3.59383114001022    2.03041739468987    2.32530701328053
N         4.64132768015963    1.25804134931475    1.68012176750315
C         4.73531961660095    1.10199048454421    0.32191844935719
N         5.86831448670071    0.89250021071731   -0.28032137892902
C         5.57289094071854    0.85735219910636   -1.71150448891187
C         4.13515702343758    0.35913661746977   -1.75140387394837
C         3.49548612955738    1.12588534454535   -0.59307511544182
C         3.19472232577882    2.61634066834412   -0.92715598347968
N         2.34093490908999    3.47369674958906   -0.07935336884984
C         2.92888137214846    4.25359293517687    1.00441359972185
C         3.74684052024279    3.56744286423619    2.13539333720023
N         5.13691056622441    4.01010122900763    1.87111323078695
N         2.41864531343822    0.30682565801077   -0.02036926026323
C         1.22911357087822   -0.13810452664980   -0.53101582604375
C         0.62480977447590    0.49881362171157   -1.75746786442492
N         0.76780090973991   -1.22034968970690    0.00067299997333
H         3.01072574605480    2.54275974846182    4.31661616765978
H         4.69522592229968    1.92070463993484    4.05306328231184
H         3.27124987801763    0.76908944289916    4.05073673841012
H         2.60212248347094    1.72888145136626    1.97957993247654
H         5.56277270357145    1.15789544420193    2.10190325852948
H         6.27860546415260    0.20149972545809   -2.23556628362036
H         5.58608877475090    1.87350745613432   -2.11187157303003
H         4.04963205217697   -0.72006497506696   -1.57657062089791
H         3.63593283025436    0.50585183739965   -2.71767817522787
H         2.81431130175161    2.65246988025508   -1.95419005304492
H         4.11135645354825    3.21871199601562   -0.96204613789535
H         1.50092563145172    2.95786089523203    0.17747712675993
H         2.02292181108896    4.67226594702920    1.46332518001009
H         3.58973832616338    5.07726789515532    0.70563509768874
H         3.45787587762248    4.04539888041842    3.08133084189799
H         5.54078438849348    3.62202564703923    1.01515707450355
H         5.70969997855611    3.75947163306062    2.67453242288820
H         2.84090982598354   -0.30867238712426    0.66749006432779
H        -0.42323885187992    0.25563392388582   -1.91114651709857
H         1.37377991913747    0.28660137595670   -2.52592238215402
H         0.69885356943802    1.59102471528548   -1.75651694619340
H         1.34125615423136   -1.55369299847495    0.77723993532423
