39
 energy: -52.269420316242 gnorm: 0.101667684749 xtb: 6.4.1 (79825abcba525fcdf90b791dcacef51065a7a4e7)
C         3.69791416758543    1.58119127310302    3.76898340262122
C         3.72168792224876    1.99471882052133    2.29164751286069
N         4.73298643364662    1.26426028318551    1.54748126009628
C         4.70771488456247    1.26462097387102    0.17734848161385
N         5.78584217633281    0.99320395573538   -0.49661792418496
C         5.50490271261978    0.81781725315482   -1.92038337686342
C         3.99587835387753    0.67131334576471   -2.05555596324998
C         3.46822068153346    1.24117093255976   -0.73811614102925
C         2.98683269695278    2.68337273353117   -1.07254939146837
N         2.47644978622419    3.36078706624437    0.13716166433975
C         3.43553956283426    4.16259687918636    0.88930380745206
C         3.72230254584735    3.55097203094438    2.29025217038485
N         4.88721294301890    4.24814467818155    2.88608705183117
N         2.36441907341076    0.49200911543450   -0.12263624315209
C         1.29975183656143   -0.28243151125658   -0.49738140720317
C         0.72454174959418   -0.18301797197917   -1.88816633371202
N         0.66346997722682   -0.95102885476207    0.40532560874853
H         2.78581266715243    1.99532819316407    4.20693261726522
H         4.64073907471650    1.91383365737101    4.21288751487584
H         3.71536816495774    0.48967005132861    3.84705215848906
H         2.76416192847937    1.74807252165525    1.82662408987577
H         5.70389772800976    1.23252862345238    1.85295486364960
H         6.13572451601881    0.01215210390001   -2.31507786305522
H         5.84192161217447    1.72234794306390   -2.43154086951513
H         3.75538638918504   -0.39382631398934   -2.15654301200847
H         3.57315052609321    1.15866258933920   -2.94337805842489
H         2.11636051834277    2.60968822235770   -1.73411242320398
H         3.77713287450662    3.31733420454650   -1.49421888303068
H         1.63786595674983    3.88522590551661   -0.10657014991267
H         3.03861285547042    5.16724450115531    1.08875808352883
H         4.41292249701209    4.33430452127217    0.42060343251916
H         2.83415790993415    3.79810540546007    2.88763353066551
H         5.69053477482718    4.38230783115070    2.26717514653853
H         5.19689208359608    3.78584887374397    3.73859319412840
H         2.68866160946429    0.04817774303089    0.73069611448886
H         1.17045303013833   -0.90418633478917   -2.56804775092897
H         0.89855380216942    0.80839842265620   -2.31633218094031
H        -0.34063170867954   -0.43359792207125   -1.85617173499123
H         1.02627507811899   -1.17075481388444    1.33436696289838
