39
 energy: -52.259965581466 gnorm: 0.115969772911 xtb: 6.4.1 (79825abcba525fcdf90b791dcacef51065a7a4e7)
C         3.74445664790790    1.36395248839888    3.59394759950593
C         3.61829649994645    2.03349330981826    2.21921481395411
N         4.74223820645402    1.63289550576529    1.39074986499813
C         4.83238394822522    1.26525286447657    0.07370194198884
N         5.99043824167985    1.17802701739141   -0.51072792097850
C         5.74751118928971    0.80049418454797   -1.90186089554770
C         4.28738719878192    0.39925077601902   -2.05655800025176
C         3.60875643876878    1.00041796399704   -0.82494675050240
C         3.17502993197883    2.46347807466938   -1.13294422587144
N         2.45631158037463    3.01293544095930    0.03509783701214
C         3.12502900921268    4.03930707133813    0.82746659825710
C         3.38404043266809    3.57049321283191    2.28763813751872
N         4.44046857218571    4.42602304585260    2.87934196636629
N         2.65548120089272    0.18629117864423   -0.05885222450005
C         1.35175078522743   -0.12015317215516   -0.34184942196842
C         0.57647856485426    0.49655839368711   -1.47923776433903
N         0.63899813679739   -0.91623685725149    0.38271347988180
H         3.43545216542401    1.98927993522358    4.43580260837309
H         4.68177715937562    0.89050503152716    3.90037601510517
H         3.04246205485826    0.54609829945157    3.78404246826303
H         2.68145757131586    1.70913171729102    1.75980260703107
H         5.64480762250481    1.99387339933296    1.69415251594922
H         6.44284791881747   -0.03183052328157   -2.06482909077436
H         5.95468059950040    1.74529910060783   -2.40926999710052
H         4.20927164771206   -0.68719541249907   -2.18340394665877
H         3.90231675910579    0.79563770906590   -3.00473221043089
H         2.59842706329712    2.48348102203231   -2.06458035200500
H         4.05353690915433    3.11668622602157   -1.20930705676942
H         1.52613925642792    3.35703187891189   -0.19736983913195
H         2.47664563932898    4.92192178777836    0.91255438055837
H         4.06420965027422    4.33961477826042    0.34559943908957
H         2.47660341809004    3.94408543047438    2.78132548421564
H         5.38565329869719    4.29427023326058    2.51104223733458
H         4.46441055922640    4.35049423502838    3.89428407407184
H         3.10883315880278   -0.43443352591743    0.60407194050289
H         0.90323566939011   -0.00377111160238   -2.38701505147075
H         0.63168600265482    1.58836849906906   -1.51686071613161
H        -0.46301178127101    0.16996758883373   -1.37337591098542
H         1.23704503900384   -1.39594766294092    1.05742996120921
