39
 energy: -52.262502630676 gnorm: 0.125459807844 xtb: 6.4.1 (79825abcba525fcdf90b791dcacef51065a7a4e7)
C         3.67941302310475    1.36687525094786    3.51944861591907
C         3.62309086991719    1.98624026631258    2.11684163062501
N         4.85574250807007    1.62605153542275    1.43793678023751
C         4.92932396751574    1.16271249030386    0.15037888877782
N         6.04632263592502    0.97919502658698   -0.48906750201815
C         5.75194587896560    0.56897837622079   -1.86087658835642
C         4.23921576683946    0.48355717507123   -2.00661733021508
C         3.66182757191223    1.08024940869069   -0.72233183560308
C         3.17173665794445    2.52417862867961   -1.03602804653008
N         2.30892213638329    3.19584284133926   -0.04244865811521
C         2.90612354531861    4.20163076062118    0.82945220493783
C         3.46887600214889    3.53483451725235    2.11695627239091
N         4.61564460828456    4.34741579610306    2.58888696115538
N         2.64573444498058    0.21623586588117   -0.10631861691483
C         1.30015858921185    0.02127970663044   -0.26483129164812
C         0.54783296369555    0.58952843211667   -1.44217234540175
N         0.64301084534032   -0.80156009338441    0.48206125805103
H         2.79340751667221    1.69369530238131    4.07028520540716
H         4.52114094976440    1.83298801071898    4.03988460163644
H         3.66646391753731    0.27360685669938    3.56858607125881
H         2.72460507254401    1.52166312812556    1.70352751119285
H         5.60468531083787    1.42710770525095    2.09861506217319
H         6.26851547120579   -0.36223132105471   -2.12321334547424
H         6.06228309112908    1.40816178919241   -2.48737599445181
H         4.00673284485073   -0.58221086006280   -2.11907822170262
H         3.90912162855498    0.80738686229331   -3.00191043529193
H         2.59633972256262    2.54051070879614   -1.96848098863661
H         4.04869907871181    3.17522408334739   -1.14262733254293
H         1.79893015212278    2.57817249831883    0.58688086776415
H         2.17287435737254    4.99380824378080    1.03304524400746
H         3.74495778241393    4.64383118975477    0.27695165289170
H         2.78431463380552    3.81827741651859    2.92799027065718
H         5.34152665460559    4.29972823311032    1.86972159972276
H         5.04497266497241    4.12550372994767    3.48488794246899
H         3.02526667103955   -0.41435519338812    0.59268482822688
H         0.27209645302370    1.58724260109895   -1.11096962758857
H        -0.37956260727808    0.02425167011201   -1.57221962730017
H         1.20240739789925    0.70324086616054   -2.31223570835089
H         1.09353139358328   -1.18758361211420    1.31335059318589
