39
 energy: -52.271588149656 gnorm: 0.118282462677 xtb: 6.4.1 (79825abcba525fcdf90b791dcacef51065a7a4e7)
C         4.29638270359505    1.58497559128146    3.61816665356778
C         3.76264384325139    2.00485541634139    2.24233406504444
N         4.83979465577648    1.86313382205567    1.27810438717961
C         4.80862101251509    1.29284935070118    0.03242929706387
N         5.89322985134095    0.86706487315308   -0.54427479219239
C         5.59602532919676    0.42116374664935   -1.90428846738843
C         4.07897291648126    0.36046321677756   -2.01271795000297
C         3.52350570661479    1.10314307569379   -0.79670365322747
C         3.05801288962692    2.55538706946747   -1.10948126400320
N         2.45223645002395    3.43400684257434   -0.08779447224600
C         3.22579731930642    4.18860152954492    0.89233837582550
C         3.32431393211857    3.49757208870888    2.28221141298023
N         4.11137840867519    4.41423083474940    3.14148516968995
N         2.50773091054151    0.37409986463420   -0.02525404607117
C         1.28667625003363   -0.12881847881916   -0.38554174063821
C         0.48773231937558    0.52179388406604   -1.48709726530784
N         0.84815359618232   -1.24948381141950    0.08196662476339
H         3.47980151405552    1.21719400121838    4.24519927746559
H         4.99573961817670    2.24610490036260    4.13819411348118
H         4.85534304054212    0.67929743942510    3.36296402872843
H         2.92312886152012    1.38552483879839    1.91740110303567
H         5.77289044873089    1.88081739986898    1.68554676376666
H         6.11197988803800   -0.52050650117171   -2.12759151881634
H         5.99914217433262    1.21679248022659   -2.53477337267163
H         3.72085528246542   -0.66504891597236   -2.16316355363552
H         3.75623488751913    0.96252157531581   -2.87167201118657
H         2.27498017361780    2.44045433493907   -1.86741734040536
H         3.94563694403357    3.05182156728780   -1.52174696250987
H         1.70384950681280    2.91639563882389    0.37009170414782
H         2.83456356308859    5.20239186829478    1.05300870724934
H         4.25073154465083    4.32555262077410    0.52464939854445
H         2.29963694472530    3.62592032555867    2.65678328128118
H         5.09876635757586    4.36969408868615    2.87793407363207
H         4.10881253003678    4.24512512039688    4.14536861686047
H         2.91155597559991   -0.32116230721927    0.59428727769670
H         1.07168001108574    0.70410251162621   -2.38538902190509
H         0.25139919791152    1.52363665035677   -1.11700215604787
H        -0.45002758146669    0.03142060338992   -1.76736298761637
H         1.49949937565282   -1.74526233012013    0.69268523421721
