39
 energy: -52.271346967523 gnorm: 0.104470647347 xtb: 6.4.1 (79825abcba525fcdf90b791dcacef51065a7a4e7)
C         3.59179259374194    1.57223176861480    3.74428053129676
C         3.53612816064547    2.12749426066309    2.31505816414474
N         4.51076202270197    1.41192761196708    1.50999236514380
C         4.63478154840126    1.33580774350773    0.14737447936830
N         5.77901258104696    1.15453932592180   -0.44265386253050
C         5.54092114750330    0.80611643010587   -1.84219288970176
C         4.03847779173381    0.62619856218583   -2.00706569925818
C         3.40229530097698    1.27245136848426   -0.77562869700954
C         2.86389331409867    2.69570916167774   -1.10424173901118
N         2.45056817053352    3.32267002134323    0.16810417208640
C         3.35288533147865    4.18800498847932    0.92009426404230
C         3.75491217167714    3.66822252847275    2.32976617023116
N         5.17136871055653    4.03105859213212    2.57489062641813
N         2.44114088867304    0.46340850117999   -0.01400625466126
C         1.35983096443844   -0.27231786303811   -0.41796677543805
C         0.85085232947816    0.03727536416823   -1.80365259455740
N         0.78256764415609   -1.18135340647976    0.29419780609497
H         2.69366660079622    1.94023253047914    4.24745365013250
H         4.55336707399099    1.83160372154971    4.19674193964729
H         3.66497813232612    0.48043757207784    3.72313208890692
H         2.61639081530458    1.76625393068040    1.84866151050764
H         5.43452040898959    1.30038353279400    1.92377747596854
H         6.01623977796210   -0.15719153555068   -2.06338551782452
H         5.90459224596654    1.62724920463182   -2.46390325796679
H         3.73919548453143   -0.42828901053611   -2.03936606344584
H         3.60141245330554    1.05842896268590   -2.91623396743700
H         1.98087947629082    2.61580209111289   -1.74822797429624
H         3.71375919055190    3.19673637379151   -1.58485218282323
H         1.52732734588379    3.74072414475528    0.06553099718600
H         3.08754813219710    5.25367757626579    0.89585048745357
H         4.35846576908166    4.15462695660145    0.48176237513944
H         3.05454173315944    4.08011625105933    3.06906657497470
H         5.73521620843295    3.42862796647662    1.97029902427388
H         5.38204706753608    3.72105981764084    3.52141093476100
H         2.90464275433453   -0.01640800764030    0.75100207613097
H         1.62183920689774    0.01964942700991   -2.56943845143036
H         0.43918630221596    1.05028221280753   -1.83299303073647
H         0.12248669741130   -0.73670405018815   -2.06604130468194
H         1.14009314181973   -1.36824831401585    1.23242522421606
