39
 energy: -52.266683888917 gnorm: 0.110306235783 xtb: 6.4.1 (79825abcba525fcdf90b791dcacef51065a7a4e7)
C         3.81309263928923    1.79360250214665    3.86613381016870
C         3.69729409542285    2.13860506140465    2.37561193415694
N         4.65630887368510    1.35596866827167    1.61544836306317
C         4.75596728233634    1.28981599938569    0.25031298324086
N         5.80906198450040    0.84999267434565   -0.37242559072336
C         5.50471652906520    0.35793880587501   -1.71483102975416
C         4.00071646918299    0.53278657084996   -1.87072073241513
C         3.48099398664935    1.23122306538353   -0.61338904993578
C         3.06004567063854    2.69108224465401   -0.95271143037675
N         2.22865185076709    3.30608188882630    0.10243854032242
C         2.89398406014441    4.22327026267060    1.02144261644435
C         3.74578104777576    3.68484418345442    2.20614236507231
N         5.12799723116452    4.20656801515828    2.08217548122082
N         2.40065851352915    0.48107153331957    0.04127488145745
C         1.37039714418362   -0.13836002531277   -0.61338122196274
C         0.80830483466262    0.30439026540024   -1.94118272460065
N         0.81141758215697   -1.18789154409042   -0.11060650446916
H         3.18989951703305    2.47828974007313    4.44757319914458
H         4.79317031148768    1.69708615638696    4.34231965908208
H         3.37969671909473    0.79028895021479    3.92399434735638
H         2.68817268561179    1.88714972142183    2.04037860517958
H         5.58186040225854    1.32305558282698    2.03884043689736
H         5.92231894276632   -0.64593043102752   -1.85860512677492
H         6.00941052603719    0.97426553702567   -2.46213606175270
H         3.63850647154239   -0.49760770257239   -1.96894911438728
H         3.68683476737330    1.11725018259806   -2.74497283392127
H         2.53115305349652    2.70273915872968   -1.91237468726906
H         3.92641660692924    3.36408756302735   -0.98013243206299
H         1.60627341695440    2.61498203237835    0.51799863919285
H         2.04270949757412    4.77127549745155    1.44767206045767
H         3.46851656070139    4.87526720073358    0.35117897808157
H         3.31675675966310    4.11112619123291    3.12318221244370
H         5.73606688035577    3.66884868729857    1.45969103446164
H         5.63147050581019    4.12991612899652    2.96366538560804
H         2.53225809545584    0.07659688379068    0.96289161660305
H         1.45513704744686   -0.26461567876633   -2.60375328911497
H         0.90208614752027    1.37195979134542   -2.16030147363919
H        -0.25398073850910    0.04556599420107   -1.99566043518046
H         1.24834732745751   -1.52177217158222    0.74999852001342
