39
 energy: -52.255761319667 gnorm: 0.123115432232 xtb: 6.4.1 (79825abcba525fcdf90b791dcacef51065a7a4e7)
C         4.00533499810088    1.62101958329792    3.60486274104272
C         3.80371618729171    2.12265890187569    2.16896602050287
N         4.93022688805666    1.65797198691326    1.37832232990352
C         4.88626777470707    1.19841003578878    0.08806149972778
N         5.92087323085972    0.62086763606871   -0.44700175308285
C         5.52431825190200    0.20974449613848   -1.79255645565491
C         4.04564972350108    0.52606246170739   -1.96683172741938
C         3.55286562452454    1.19826818946970   -0.68460269442304
C         3.00686722574076    2.61659837696013   -1.02187296266805
N         2.26977850026566    3.45615328836119   -0.05511060530692
C         3.00837667417981    4.22432889318734    0.94130744520127
C         3.31944379445208    3.59304190653919    2.32827833019820
N         4.30842342169167    4.44841323006546    3.02709470191465
N         2.59353284815982    0.33901357986701    0.02236202715400
C         1.50942602536001   -0.22895517764528   -0.59068976582229
C         0.60463177671952    0.61881580517493   -1.44956355448705
N         1.12848595340237   -1.41690251654091   -0.25839052537653
H         4.94315478628156    1.88592920488126    4.10039778780475
H         3.85208285973772    0.54081018950606    3.52560324975792
H         3.21686405992502    2.08868937414470    4.20270594468618
H         2.89612797075374    1.63903422016473    1.79973980769029
H         5.80813071293268    2.03624694117653    1.72929623932628
H         5.65302024201030   -0.87258155807284   -1.91430345567133
H         6.07794313391584    0.86008138316965   -2.47343890851082
H         3.38411015691282   -0.28382092617218   -2.29700072117004
H         4.02717219970518    1.26465754422614   -2.77835626471431
H         2.42925155855464    2.48722523535066   -1.94406577921500
H         3.90523908830575    3.16009278910294   -1.34097874674879
H         1.53209767771847    2.87687016701588    0.34228364956641
H         2.40870538723642    5.12863701448778    1.11239462839550
H         3.90487537444148    4.37885027152743    0.32742294816422
H         2.49394158738216    3.73088061613935    3.03981671135247
H         5.07151403581950    4.75128488325752    2.41689871875339
H         4.63279669031144    4.06752851280997    3.91371418927277
H         2.97742719497820   -0.32274431295978    0.68944316894345
H         0.36877974015900    1.52122888090662   -0.89172496827647
H        -0.25902539836887    0.01296072584456   -1.73861125538579
H         1.08656808135786    0.92843287122225   -2.38245322741194
H         1.80464424522273   -1.90995228183371    0.32704673231488
