39
 energy: -52.264306239821 gnorm: 0.120861561915 xtb: 6.4.1 (79825abcba525fcdf90b791dcacef51065a7a4e7)
C         3.93043263346007    1.61331987488580    3.89895143042149
C         3.63714574664627    2.02967781256033    2.45163653237819
N         4.64464945270382    1.43946713426739    1.58753851217861
C         4.67205340145118    1.34073240058250    0.22100894050792
N         5.82469714111999    1.26483975786692   -0.37557221607237
C         5.53734023257550    0.95963880550150   -1.77595571054583
C         4.10530977073186    0.46561616005635   -1.92468340864195
C         3.46342905111765    1.14687739983831   -0.71527022714303
C         2.80690619143466    2.50574072952629   -1.09736211373922
N         2.28645753940870    3.25633119750948    0.06389964244490
C         3.15678372472529    4.09143684175316    0.88463154369567
C         3.75113497658023    3.56465077380030    2.22187396296380
N         5.05890791999017    4.21388926550527    2.47937045211420
N         2.42385990241384    0.42131332701039    0.02721864699167
C         1.35977818631486   -0.20100206321236   -0.56789667776242
C         0.84948305785504    0.21483183895191   -1.92499412693332
N         0.62615099103672   -1.13328079538572   -0.05857900253505
H         3.25912618706311    2.21867064333583    4.51387919136657
H         4.97715178432701    1.76958410067361    4.17568438396893
H         3.68945104702062    0.54805914918020    3.96941710602433
H         2.66658897545552    1.69989683912057    2.07321710762182
H         5.53519079878357    1.49561173713995    2.07822542870734
H         6.14028971137803    0.13017286990805   -2.16487010892487
H         5.68819480174267    1.87612140999246   -2.35070959358470
H         4.06450833726774   -0.62234972941582   -1.79344800155088
H         3.76302944122208    0.79078562937125   -2.91541302208455
H         1.97759683468889    2.38489746057560   -1.80337893545211
H         3.57668071794907    3.07813014140748   -1.63037639009331
H         1.62999299313659    2.66172154444158    0.56704751944080
H         2.71996143176269    5.08009688236144    1.08055822542421
H         4.01848271790135    4.34012118091690    0.25211917500669
H         3.02336766418506    3.88514243810281    2.97975265903376
H         5.84569532670685    3.73311074641959    2.03643111707212
H         5.11895989532765    4.10223204974977    3.48947526444767
H         2.78255621209136   -0.21441148201923    0.73254591122598
H         1.47264763932803    0.40543078405795   -2.79476269708987
H         0.25956732704862    1.11600978783771   -1.73423145083282
H         0.12024159730478   -0.53570718059390   -2.24640747743805
H         0.88100833038371   -1.31789890002850    0.91301184676976
