39
 energy: -52.266635479008 gnorm: 0.112317770098 xtb: 6.4.1 (79825abcba525fcdf90b791dcacef51065a7a4e7)
C         3.59615732006851    1.59500172737635    3.75709367045623
C         3.55635415259779    2.09422158536670    2.30682238394311
N         4.54302167615554    1.31793345917283    1.57610922236334
C         4.58138874552833    1.31399879819891    0.20628619807212
N         5.75325676870275    1.32070059413006   -0.35668520218678
C         5.51442740183539    1.10405201024370   -1.78245498554798
C         4.10911820154510    0.53311562500027   -1.90905372584102
C         3.36409899962580    1.14992239231803   -0.72444248859942
C         2.72927409338598    2.52067373340429   -1.10069254102521
N         2.58432981777277    3.57671861945546   -0.07768616192413
C         3.68135306863697    4.07483839303512    0.74504504289619
C         3.79127046629678    3.63080093975431    2.23155881042129
N         5.12456525072508    4.15876252660818    2.60794521517897
N         2.39348849871848    0.28193855257629   -0.04403360160443
C         1.29751823486681   -0.37401997567815   -0.53624916244136
C         0.77612409429143   -0.08539485190026   -1.92184510373742
N         0.61225769144763   -1.13328291946077    0.25159266793744
H         3.25986372798531    2.36318534606882    4.45854830070469
H         4.60043010261991    1.22121988570421    3.97696621439179
H         3.02026481173993    0.69632632814092    3.99906122320846
H         2.51853742311779    1.94361577910128    1.99991599142413
H         5.47110797014854    1.56627385044171    1.91370758717667
H         6.25694827897943    0.37623680352043   -2.13140196442443
H         5.63288427379481    2.05665169821975   -2.30357041845779
H         4.14168645307824   -0.55223131984330   -1.75569602227068
H         3.77381336794050    0.97750587798941   -2.85484659689795
H         1.78474097279743    2.27190090166444   -1.59746826150183
H         3.42634618335491    2.92806109394857   -1.84393726645757
H         1.76907232006732    3.53951398681191    0.53193269369234
H         3.50977838956885    5.15608712381695    0.83511708918300
H         4.67988643470103    3.92701351862589    0.31432486305243
H         3.08658058316874    4.17066582015529    2.87862786755105
H         5.80946885829338    3.45130894453314    2.33082765194959
H         5.22230777702745    4.13144136626445    3.62090388054866
H         2.72365627563206   -0.00379755023391    0.87228497386818
H         0.36372655965297   -1.00541251672453   -2.32762237690747
H         1.57044984387605    0.26304973130616   -2.58828762455261
H        -0.08081463804049    0.56630142029247   -1.72346051065210
H         0.97648869206076   -1.10693076331331    1.20535690907202
