39
 energy: -52.267565353337 gnorm: 0.121363199274 xtb: 6.4.1 (79825abcba525fcdf90b791dcacef51065a7a4e7)
C         3.69544271147769    1.35220228527342    3.65504022818745
C         3.60444224004935    1.95382927219448    2.24654619713311
N         4.71005198774333    1.42847770587198    1.46442690484215
C         4.76133906187572    1.33424915418545    0.09826687026982
N         5.93067154488277    1.23233600199007   -0.46077840822847
C         5.66069072537904    0.95318702883593   -1.87002705909637
C         4.18186523045206    0.64667859624306   -2.05980926061674
C         3.51645981268370    1.20436941985334   -0.80083167032987
C         2.83251597701600    2.54117756524384   -1.21155154283039
N         2.44027641885433    3.41376357774227   -0.08570808503567
C         3.44533037218057    4.06032062424076    0.75113150848907
C         3.55187021369618    3.50853847079309    2.20135907528947
N         4.62988628691940    4.20831058872627    2.94047034645528
N         2.60932621064034    0.26213122188313   -0.13170331858174
C         1.33003901405061   -0.19035071869473   -0.31168365954452
C         0.48884142030761    0.31962024070098   -1.45507713971924
N         0.85457552525273   -1.10801539130253    0.46199779716523
H         2.94170390162065    1.93655711875840    4.18949816627049
H         4.64499709430397    1.42338218467653    4.19346432985879
H         3.36537766909313    0.30913187977495    3.68469063757953
H         2.71926811258699    1.62532136460208    1.69655844462495
H         5.59473601836663    1.51254053536037    1.96167671199757
H         6.22600078132129    0.03433161233589   -2.06737317397189
H         6.00686772596952    1.83085039155239   -2.42039784175376
H         4.02480049162967   -0.43856917262367   -2.07099941741843
H         3.76482111714041    1.02739420596928   -3.00085443147892
H         1.95385654891164    2.48462922526248   -1.86391397683355
H         3.55852088181796    3.18269016994097   -1.72697868084526
H         1.57364792249151    3.11232727496289    0.35673437419786
H         3.29952653721215    5.14889617289889    0.77098540960459
H         4.45486390046587    3.95713051194355    0.33323820801329
H         2.60934676694852    3.91619814506577    2.59149165413157
H         5.30839191542319    4.64212912681134    2.30974913013831
H         5.21024753485073    3.55582165508693    3.46375260124075
H         3.18945206703205   -0.12166063278757    0.60752156092857
H         1.02671353200248    0.38821919193449   -2.39696205605077
H         0.07797984941350    1.25936024944155   -1.07482176727180
H        -0.34413888246294   -0.38415854759661   -1.55124210387772
H         1.52098103482638   -1.54438116913484    1.10114839558804
