39
 energy: -52.268519712148 gnorm: 0.109414030525 xtb: 6.4.1 (79825abcba525fcdf90b791dcacef51065a7a4e7)
C         3.78268305438009    1.36960715913618    3.66208011012383
C         3.64233554004942    1.89863891984914    2.22872058574411
N         4.83498603149299    1.64050447020233    1.44066653816189
C         4.85618535834622    1.26935862757896    0.12168815794456
N         5.99026593717255    1.02873696125536   -0.46671546564155
C         5.69009407027015    0.67489894507384   -1.85289404525996
C         4.18298529816873    0.50977943664390   -1.98798007326799
C         3.59547841992276    1.21154676251556   -0.76275917077620
C         2.96975890383841    2.61344109322020   -1.02100974948375
N         2.14578925222128    3.31225588461628   -0.01328280532414
C         2.85596300934264    4.10694838471512    0.98300381325339
C         3.48567504992384    3.44692467417897    2.24268858221856
N         4.77822106807789    4.15147629705754    2.41880486971172
N         2.65300973747751    0.35414706754520   -0.03128428945804
C         1.40157591759158   -0.07129605603244   -0.38712149649702
C         0.68164207682676    0.39018269116390   -1.62960491941079
N         0.67935707740672   -0.73083425136053    0.45559215587310
H         2.85574856602428    1.62776210628390    4.18110470279603
H         4.54650390273553    1.96437791266422    4.17143861196866
H         3.94604327068880    0.29314566662459    3.77326483715103
H         2.84114743840201    1.46949212855684    1.62219946994794
H         5.73407573244200    1.62173278927296    1.91844796281950
H         6.28222645493947   -0.23757562035184   -1.99284270470509
H         5.98370261161341    1.42748595897486   -2.58804457345257
H         3.85933745844286   -0.52977535135309   -1.85707864243967
H         3.93643769782107    0.92777451016276   -2.97232278501119
H         2.39398775553623    2.56909758036926   -1.95231962800709
H         3.88252576328895    3.20936655061757   -1.14756484064702
H         1.55639700168657    2.58098533880682    0.38108287569144
H         2.04876641953286    4.79443701579383    1.27013219600098
H         3.62447594159038    4.70928147801363    0.48198118952957
H         2.88090073747324    3.64884945141504    3.13723578678183
H         5.40103085829248    4.16848214780767    1.60751180888613
H         5.34374530386912    3.85843550875825    3.21296778682955
H         3.18291833084569   -0.20471149830422    0.62990373613756
H         1.21325051651739    0.38960111546509   -2.57752450842514
H         0.25985997219642    1.38688664907877   -1.47087957412448
H        -0.14439346346852   -0.31133720254855   -1.78434209259278
H         1.19866390718611   -0.83159542034153    1.32920104472825
