39
 energy: -52.264815244761 gnorm: 0.115682301314 xtb: 6.4.1 (79825abcba525fcdf90b791dcacef51065a7a4e7)
C         3.87240353256382    1.65788933886195    3.80593484971395
C         3.65456034329531    2.06685202472524    2.34327103926629
N         4.77184250245627    1.55857268003179    1.56647605523980
C         4.72808936088470    1.19104438993222    0.24704010384875
N         5.84998465571521    1.01304670994409   -0.38535546027075
C         5.61781812455717    0.75662854847311   -1.80561739874876
C         4.12232273554831    0.58361651546682   -2.03022800416185
C         3.52166175230053    1.03989160356045   -0.69987939573384
C         2.98520831260763    2.45869963073449   -1.05020427056618
N         2.32391534991239    3.32862402733837   -0.05586787042570
C         3.23100001143342    4.11001379357892    0.77785715867002
C         3.53857652725880    3.61383004907920    2.21944401210034
N         4.71678361967300    4.34916265610322    2.73828805967501
N         2.53387784111454    0.14860655024051   -0.07671741812242
C         1.29972847122346   -0.23869898403065   -0.52457714054160
C         0.60194080409501    0.46781015583404   -1.65990512885098
N         0.63455185512544   -1.24930556884293   -0.07405368676990
H         3.46716829937354    2.45624963758243    4.43334483511925
H         4.94171493927198    1.43500755178246    3.86524291908365
H         3.49994948353356    0.65675305481433    4.04430865720217
H         2.67832497536731    1.69171023837041    2.02677404324859
H         5.70205013913619    1.71282319027626    1.95106712580788
H         6.25111123782567   -0.09172882655193   -2.09205380971221
H         6.02819512367114    1.62859341735773   -2.31972582869947
H         3.86688504489891   -0.47650974662300   -2.14616404355936
H         3.83080667597252    1.26471053902084   -2.83989800020506
H         2.29135952250770    2.25963058018001   -1.87468121886528
H         3.86314201357927    3.08003056644462   -1.26807343120130
H         1.63521348196200    2.85604689987264    0.52724851849615
H         2.69648533178727    5.06087813578750    0.90747476891795
H         4.17943115657960    4.27688712293701    0.25148028751927
H         2.68986291866548    3.97620596492826    2.81535440191417
H         5.55232404971762    4.37846194051777    2.14888886981595
H         5.04186040653367    4.02550415740787    3.64710903367017
H         2.94127154414362   -0.52472216252877    0.56433985986719
H         0.65111735448379    1.51737266020765   -1.38212887872950
H        -0.42632446085161    0.09479164905400   -1.65354889577569
H         1.17000973491764    0.40103191791636   -2.59331116257009
H         1.06629227545519   -1.88339473113936    0.60015401525117
