39
 energy: -52.260667938498 gnorm: 0.110759148531 xtb: 6.4.1 (79825abcba525fcdf90b791dcacef51065a7a4e7)
C         3.90539759589242    1.53578014069669    3.74053188328428
C         3.73899621342516    1.90268204212097    2.26006401374439
N         4.85856285104028    1.52538342843276    1.41490483084504
C         4.89822826685576    1.15662915570901    0.09568174424317
N         5.99597145734772    1.24980198613571   -0.59463345905385
C         5.67498450783323    0.92540299904026   -1.98334805259495
C         4.23800644359957    0.42367447459419   -1.96747130009981
C         3.59994399030079    1.05268665967750   -0.72810534759500
C         3.11248712618451    2.48864909852578   -1.08013329498005
N         2.35210270081378    3.36293970081083   -0.16350187307920
C         3.23061173274832    4.01886067732035    0.79902579905346
C         3.34269186393754    3.40721268626454    2.22461306245664
N         4.22955750091119    4.36715539258205    2.92465911598862
N         2.60390614477642    0.20665659619073   -0.05685377066112
C         1.30539900553466   -0.05696935781412   -0.40049477150845
C         0.60063947828559    0.44109563911606   -1.63753870399601
N         0.58376474438084   -0.75342471444342    0.41249410520960
H         4.58205829864890    2.15147719313629    4.33910140836263
H         4.43838906621555    0.58156512737137    3.78541416538973
H         2.94220826998728    1.34460908794650    4.22378947179252
H         2.82900909285146    1.47390237679139    1.83343930816188
H         5.67800149513436    1.18633568657065    1.91546121785869
H         6.38946866425458    0.22440030250984   -2.43159333041435
H         5.69619237830858    1.81675570384817   -2.61428392289085
H         4.19145300077564   -0.66233514756277   -1.82265021730708
H         3.61065779905335    0.58392930592717   -2.85357978578825
H         2.60705888032838    2.45350744211847   -2.05179383566152
H         4.06176044110697    2.99025812300011   -1.30719109333602
H         1.58564943289857    2.85135048723906    0.27065246477250
H         2.89520187814449    5.05748148133775    0.92318986003574
H         4.21737104748777    3.93871636510957    0.32539735943761
H         2.45010779616772    3.41842190340143    2.86485389073928
H         5.12620359978788    4.57255781917147    2.47720713123895
H         4.39987409786629    4.15720948643527    3.90613773299554
H         2.89501922644009   -0.57767124253288    0.51793195279974
H         0.45124961162704    1.51754334165163   -1.62741781391313
H        -0.35156360908967   -0.09719806810295   -1.64540171688992
H         1.14161656214363    0.22568682584431   -2.56455073282552
H         1.08292659229962   -1.01112158020023    1.26540363165519
