39
 energy: -52.266374035490 gnorm: 0.111585950814 xtb: 6.4.1 (79825abcba525fcdf90b791dcacef51065a7a4e7)
C         3.83043428706600    1.75207813243315    3.81096166368720
C         3.65057738255787    2.06392224246334    2.31948713188027
N         4.74449365903913    1.48476359793295    1.55922390857074
C         4.69896066643651    1.21193587629499    0.21706357742432
N         5.81593344508496    0.99386914189553   -0.41148638415011
C         5.45533830807356    0.87131630133184   -1.82277922835113
C         4.01198897174728    0.38808733621799   -1.81173372854997
C         3.41264239627759    1.15088363570081   -0.62947594484133
C         2.94885183898741    2.56660561609100   -1.08131171709900
N         2.35927458432893    3.47123141765247   -0.07293058482713
C         3.28019519058990    4.17794606193696    0.81077162766000
C         3.54575399975176    3.61438785762449    2.23585229920754
N         4.73688442454410    4.33852797206873    2.74074291539871
N         2.37306830536666    0.36448073054798    0.04823573105534
C         1.41391423694434   -0.34879907313597   -0.61882046763058
C         0.75212175898898    0.35927472748323   -1.77454303064671
N         1.02022241383582   -1.54422551822856   -0.33121076384538
H         4.68486301277098    2.21218490423778    4.31444091225144
H         3.96934667860262    0.66709602214595    3.82269993718835
H         2.90691058978849    1.89872671650174    4.37965852343993
H         2.67193436254475    1.71802113855474    1.97809666073350
H         5.67615479267097    1.49942572862261    1.97005513452023
H         6.18871842607903    0.22515157604161   -2.32021361516705
H         5.51343076446653    1.87186128881561   -2.25703086557431
H         3.98055456375179   -0.67376390098693   -1.53962879292071
H         3.45422261798837    0.45609340073495   -2.75444685774268
H         2.24123867153504    2.41213224300386   -1.90364889535361
H         3.80522130427606    3.13442649380277   -1.46666539567111
H         1.60900982047183    3.02423984849714    0.45144088760684
H         3.15033692303473    5.25929620781769    0.95383924799325
H         4.28958064482802    4.06494992974132    0.39506279842299
H         2.81128900964505    3.97990423934256    2.96639950995992
H         5.66452508939089    4.42021120503416    2.31743651973209
H         4.96165207636115    3.98520301181009    3.66865793187628
H         2.72150552824910   -0.06470691250839    0.89952010367789
H         0.52573284490236    1.38306250177912   -1.48859534500761
H        -0.21859921028504   -0.11354675818232   -1.94962388008068
H         1.27073323655658    0.28700439414157   -2.73591059719040
H         1.49135498758636   -2.01081690149514    0.44554625161735
