39
 energy: -52.267353978279 gnorm: 0.108247426681 xtb: 6.4.1 (79825abcba525fcdf90b791dcacef51065a7a4e7)
C         3.32627807673797    1.54061117278254    3.51085646708660
C         3.50594552619726    2.09493780189617    2.09151395567670
N         4.67102350282492    1.42669026064245    1.53823615958692
C         4.78935110342139    1.16958034429996    0.19741711811043
N         5.89909466587889    0.99940992650233   -0.45814952508246
C         5.63676450025272    0.56652597702127   -1.82949554768487
C         4.12821843500768    0.36863812247878   -1.87442551109353
C         3.53282185773524    1.13774508368724   -0.69426222569026
C         3.10118820272379    2.54679339955638   -1.19606019636315
N         2.72763487317887    3.65868872558079   -0.29776827274040
C         3.70634098568391    4.15802293249633    0.66205965869612
C         3.60896415445613    3.64735177491223    2.12790651365554
N         4.88023358544809    4.09294957671884    2.74710097702816
N         2.56103762189457    0.27995726731755   -0.00268983349564
C         1.30075379124092   -0.14565844214167   -0.32555896465385
C         0.35613090680692    0.38090939150977   -1.37696104104181
N         0.73552668109004   -1.03697572202338    0.41796560935348
H         2.30205292168501    1.67335735583256    3.86943607426053
H         3.90580076454080    2.10962183441461    4.24365994992341
H         3.75347217590549    0.53485318313942    3.57228953168993
H         2.63438787012924    1.80984713265768    1.49733572063735
H         5.51775073723943    1.83200640549439    1.93290258313310
H         6.20820284596201   -0.35360107271313   -2.00166014373767
H         5.98575208406856    1.26058841983557   -2.59730052167382
H         4.00396388824157   -0.70600111584779   -1.69479092287675
H         3.73541994564411    0.59854407659688   -2.87306897790686
H         2.33479958168983    2.49712381237023   -1.97772397379409
H         4.05326565352347    2.86865145379182   -1.63678982162228
H         1.79835991416220    3.45842158141886    0.06829899619432
H         3.68778264784302    5.25383680845655    0.73620274651768
H         4.65960142357140    3.81751423514443    0.23804394998794
H         2.79574956420496    3.98316486062498    2.78566930432937
H         4.95098283955245    3.75739464992150    3.71083076309093
H         4.98022096495775    5.10550045522428    2.78069484443701
H         2.92535363164792   -0.23266367991125    0.79404677022563
H        -0.58338402250611   -0.16516539720998   -1.36042494465539
H         0.79480998921618    0.18633858216135   -2.35992366459263
H         0.21401812140476    1.45577982159339   -1.22574604298254
H         1.24836820018185   -1.17427254928958    1.29041505857920
