39
 energy: -52.271440797310 gnorm: 0.115547112090 xtb: 6.4.1 (79825abcba525fcdf90b791dcacef51065a7a4e7)
C         3.97022343713605    1.72732410989106    3.90196785278849
C         3.62482942185198    2.09645619754462    2.45333538623836
N         4.56888570517213    1.32039520129250    1.66811897777951
C         4.56668206923332    1.22839536437083    0.30084659850108
N         5.70444664335252    1.14490328016332   -0.32267340888281
C         5.47064415397763    0.85068127011534   -1.73531821356689
C         3.99444504661032    0.51703402386304   -1.89781512354462
C         3.36138212986298    1.14617150518610   -0.65595146832965
C         2.91210141839628    2.58290411964600   -1.05277918283626
N         2.35203286982053    3.49120191944081   -0.03096705179499
C         3.43510974843860    4.06873936370136    0.75761708583982
C         3.73628947830084    3.63097506537411    2.21933780434730
N         5.07819980291927    4.23407243965901    2.40273729600997
N         2.30206205235985    0.38484812000518    0.01981818000060
C         1.28078441803191   -0.26936458047549   -0.61477327750213
C         0.76648015594213    0.19617326754729   -1.95410074652192
N         0.70605508033466   -1.29695556440653   -0.08515082283691
H         3.16904674396849    2.10048337898481    4.54547862603237
H         4.95180637432750    2.08845560595896    4.22243563095289
H         3.90820889606954    0.64226497898825    4.03088188673182
H         2.59375035288034    1.77996904674551    2.27826674231341
H         5.50812916386549    1.31648504126189    2.06156045092057
H         6.14042736724626    0.03940068942385   -2.04520607191521
H         5.80333818374036    1.72405162116913   -2.30063087022706
H         3.77415888266966   -0.55277949679133   -1.99543833908756
H         3.67661869952094    1.05242236170691   -2.80157500212120
H         2.16050781296785    2.34058262147937   -1.81251874893225
H         3.72628335129893    3.14019976942560   -1.53321233344506
H         1.66875586030120    3.02892463606538    0.56660835540803
H         3.20617268657063    5.10988311448983    1.02267778749428
H         4.43334426651393    4.10840322572415    0.30330928551728
H         2.94872303786277    4.02424754802709    2.87646499050231
H         5.69106780444736    3.59500990106541    1.89051707945191
H         5.28506754205692    4.28235816813740    3.39835747009950
H         2.64908743755311   -0.09880326820665    0.84198016706599
H         1.58978131495077    0.37081851945518   -2.64172976098472
H         0.07732101866506    1.04510600700930   -1.92434264023596
H         0.18220456833509   -0.65045543601504   -2.32860087391484
H         1.05526894409704   -1.34898611800585    0.87316404592895
