39
 energy: -52.259904679810 gnorm: 0.128093049637 xtb: 6.4.1 (79825abcba525fcdf90b791dcacef51065a7a4e7)
C         3.54067486276489    1.49967545843264    3.75924748675071
C         3.58736120780439    1.95735850387182    2.29554049592926
N         4.73347791343856    1.43055055555243    1.57514641129898
C         4.76933098764182    1.31850676957115    0.20983936189419
N         5.93338065815208    1.31154793946172   -0.36912203189991
C         5.73944714057973    0.92901059567524   -1.76656631043204
C         4.28997905823166    0.48844125698712   -1.91431768149933
C         3.57296997402470    1.17489844219092   -0.75092503032661
C         2.94618776843998    2.55941808468113   -1.08823111066094
N         2.29214988406114    3.29183115687610    0.01566527325856
C         3.03864562014650    4.18044433152061    0.89973580025335
C         3.60164953268489    3.50961837072439    2.18503474930024
N         4.99093291437750    4.02727965402935    2.18313076992378
N         2.61871324989324    0.29991895234615   -0.05648862729982
C         1.40246577599863   -0.16169844846702   -0.48235246418140
C         0.48101611025940    0.46783312042146   -1.49707061437212
N         0.79205195589211   -1.13154427564295    0.11224909639509
H         2.58907498010872    1.77255659923411    4.22317807640673
H         4.27652454269246    1.96329371047903    4.42272618260184
H         3.58971471810139    0.42107419980558    3.93822335802413
H         2.75417746858039    1.49452667336124    1.76119158877404
H         5.60679672196291    1.55095324483731    2.08485927287952
H         6.50523623264069    0.17944232559626   -2.00008438548966
H         5.99715475655331    1.81108566483767   -2.35696434886311
H         4.15084016763628   -0.59676370208427   -1.98866697445199
H         3.84061332413653    0.96065672487094   -2.79722151011002
H         2.12066783666231    2.55298947906950   -1.80885053752907
H         3.78836711381787    3.06871265371469   -1.57365841077647
H         1.52864491816625    2.80112154986316    0.47818918323403
H         2.38433325718072    4.99732377173748    1.23325186979669
H         3.98381472925410    4.48291736845348    0.43111402543172
H         3.18624388102890    4.08464870961648    3.02379486599743
H         5.57307311317583    3.55212392615647    1.48907206307874
H         5.43198465263859    3.79325713483545    3.07031289882251
H         3.01780758018434   -0.41368949847368    0.54499478977008
H         1.00636722155425    0.71304806516853   -2.41632860764995
H        -0.03233501375031    1.37302749789073   -1.16001510663105
H        -0.31571193973562   -0.26367599031638   -1.66597088086523
H         1.39113781735075   -1.43386893947056    0.88213273407575
