39
 energy: -52.269892736122 gnorm: 0.109450554207 xtb: 6.4.1 (79825abcba525fcdf90b791dcacef51065a7a4e7)
C         3.61623562844953    1.31113868222999    3.57530638142225
C         3.60813601744820    1.92861072841719    2.17075868719434
N         4.83285834008076    1.61207878364511    1.45665747884740
C         4.87593639473484    1.17487556401507    0.15862039940050
N         6.02318666071256    1.02704382132375   -0.43485999694953
C         5.74487537896636    0.77891093012123   -1.84828436698517
C         4.28890040947055    0.34347589052285   -1.93443979997828
C         3.63735569976929    1.06064248484585   -0.75123671117675
C         3.16570549983786    2.51407167073628   -1.04892058512573
N         2.23574438825258    3.22805978197085   -0.14993504003128
C         2.91397774818169    4.04008627413986    0.85459592103345
C         3.45655957572865    3.47720577375187    2.19911991692467
N         4.73532520185056    4.16858169168434    2.49039806565184
N         2.61360877353830    0.27664627122999   -0.04715638443623
C         1.26673954195731    0.10072979302366   -0.21658254308394
C         0.56571808287041    0.75040755794746   -1.38342448987857
N         0.58580479982825   -0.69937512504683    0.53369538628265
H         2.58682402263065    1.44395772917565    3.91868503234570
H         4.31165619921457    1.84708345431448    4.22782002278114
H         4.01726462760575    0.30212721692104    3.43786709444525
H         2.79681676779956    1.50639445279074    1.57290276660848
H         5.78659282684440    1.68629450952006    1.80575964286557
H         6.49061864254197    0.04294835496888   -2.17238665647571
H         5.89512407396842    1.71477309493118   -2.39107975165940
H         4.21086306574272   -0.73043165732021   -1.72661771294319
H         3.84004762286608    0.64040435909284   -2.89089201618289
H         2.63327370987646    2.49415224109384   -2.00648857983952
H         4.02840794643132    3.17808981184922   -1.18716336997102
H         1.52987832716298    2.59261241020477    0.21833641565555
H         2.32662771738591    4.94254592050757    1.07193479775612
H         3.73219020185427    4.42306701851196    0.23146264006749
H         2.86613055025798    3.81408752264007    3.06204780345054
H         5.25860081382781    4.06071500920669    1.61808786882803
H         5.29857392839763    3.67282115788812    3.17840800012324
H         3.03645945838316   -0.35975236553659    0.62104244985310
H         1.10628896450244    0.47724047962156   -2.28582256843656
H         0.43328238506063    1.83453181417492   -1.32302553089038
H        -0.41329003824802    0.28422789152849   -1.53385082118998
H         1.26078752538417   -1.01460784215714    1.23230224486882
