39
 energy: -52.265382238771 gnorm: 0.114393181469 xtb: 6.4.1 (79825abcba525fcdf90b791dcacef51065a7a4e7)
C         3.75354174588716    1.25957433456363    3.49000784017083
C         3.67622706988567    1.92514570823673    2.10974382607769
N         4.86738833820781    1.44925346079791    1.42802601506390
C         4.89020259536224    1.30766958627954    0.06518481620518
N         5.99462644649844    1.35418449848480   -0.61916939754459
C         5.70814358888740    0.83457474492299   -1.95510683037388
C         4.26348964163888    0.35651402831438   -1.99147257869858
C         3.63929084725876    1.10218846428220   -0.81115334828967
C         3.03493017416789    2.46736768497311   -1.25224275531623
N         2.43692772566270    3.35848726552049   -0.23682132970525
C         3.43320887130764    3.97996932507232    0.62900423199662
C         3.34804900436194    3.44623916766894    2.08737805060605
N         4.22742047093576    4.23609433460878    2.98231926697457
N         2.67348163532221    0.24679790671178   -0.10833296889192
C         1.31280856667749    0.09774821320751   -0.10048827960437
C         0.40442447739660    0.84918421579767   -1.04134676593379
N         0.75151971954411   -0.84678280932781    0.57742981925025
H         2.71205336223991    1.10540128050060    3.78457645420980
H         4.41646428823850    1.87545100038005    4.10470309634946
H         4.25810116480624    0.31058888963153    3.28345428206052
H         2.80072950526715    1.43536881072499    1.67666206070903
H         5.75659045451946    1.66343546903339    1.87572616448997
H         6.38253653440963   -0.02159716604651   -2.07749979166861
H         5.99986258451665    1.55972251128966   -2.71806176573003
H         4.17316496720680   -0.67421339076583   -1.62815492681276
H         3.73607045270323    0.64424605496167   -2.90988178182451
H         2.24527275370551    2.34674270728019   -2.00238116034854
H         3.88149842965196    3.03773066270811   -1.65510121847632
H         1.67676562492838    2.90273589103964    0.26528263598579
H         3.27695151007796    5.06106548309779    0.74504042004781
H         4.39935055036907    3.85341646887425    0.12403335613809
H         2.35668309698263    3.50419114369094    2.55703270313872
H         5.21515895711332    4.17287342967049    2.72395234874192
H         4.04928991376118    4.07529740862024    3.97166205734210
H         3.09554219491597   -0.56535052606941    0.33050118959849
H         0.59563010047166    0.55799963993192   -2.07081817116907
H         0.43140557216242    1.93714839165510   -0.93126214350244
H        -0.56119653751558    0.36062126109602   -0.87614760187883
H         1.42489331885540   -1.37585315691296    1.13391651876310
