39
 energy: -52.268032839017 gnorm: 0.108607442862 xtb: 6.4.1 (79825abcba525fcdf90b791dcacef51065a7a4e7)
C         3.67916553110944    1.67220752011453    3.84977543245100
C         3.71020631676054    2.16030619483325    2.39551008637150
N         4.68460232086420    1.48593619315969    1.55535814523668
C         4.65103272715486    1.21114635331417    0.21324554244248
N         5.73498336375793    1.00774701320298   -0.47518462733222
C         5.42056891941244    0.75162208893429   -1.87958454436081
C         3.90772033616182    0.62146136677870   -1.98558877015212
C         3.39495591441333    1.22963492747243   -0.67944728977491
C         2.87501734156351    2.66965444110938   -0.96146446926951
N         2.47057941390892    3.64580192923470    0.07117667837855
C         3.45693679323412    4.29009322399422    0.93167525845183
C         3.79437930475282    3.71314373224091    2.33603849608564
N         5.15223261127714    4.19316505379674    2.68803149493726
N         2.36575902705475    0.37974845374628   -0.06553873394297
C         1.37013952057474   -0.40175741983516   -0.58678623209409
C         0.80454966629910   -0.14834624585670   -1.96189471292232
N         0.77605451281320   -1.35909570404135    0.04354971186881
H         2.77933238209708    2.16857221045373    4.22281758657666
H         4.57228967010753    1.96917145996187    4.40723602143899
H         3.61732723756898    0.58484047491035    3.95760345044478
H         2.74699519949601    1.93640472548809    1.93072015239915
H         5.65388100826885    1.72523636794461    1.75591741446417
H         5.89060917484604   -0.21316167481743   -2.10557275329321
H         5.96582227605354    1.54108198111966   -2.40159158013913
H         3.67540881304812   -0.45024737246739   -1.99097449258331
H         3.37159586422810    1.12372621155576   -2.80090267519741
H         1.96834506471032    2.43435891569707   -1.53014563291593
H         3.63523029156723    3.18158654393003   -1.56502761624658
H         1.63114117807354    3.37072224504488    0.57846233422914
H         2.96162899484656    5.26497628097666    1.03618780106812
H         4.36997066447014    4.51292574474638    0.36496919060674
H         3.04821491429585    4.12108391643237    3.03142600890021
H         5.75352239712868    3.93388303962704    1.90215548906808
H         5.50480373012587    3.60492258916699    3.44039424924488
H         2.47706524073876    0.01649919034549    0.87571390089555
H         0.25448094450491    0.78259008269511   -2.07117132583187
H         0.14856159627090   -1.00310776041316   -2.15050826163298
H         1.53014684229045   -0.25540642537589   -2.77457873679033
H         1.15109618120031   -1.45568610099958    0.98855708202486
