39
 energy: -52.260858095098 gnorm: 0.119431287468 xtb: 6.4.1 (79825abcba525fcdf90b791dcacef51065a7a4e7)
C         4.03156186905770    1.69325701546338    3.85874433652963
C         3.60813225609814    2.12698472654623    2.44924826713883
N         4.51259178081218    1.41534258483812    1.56290964666375
C         4.60777193786555    1.33914427004052    0.19797846774921
N         5.72179189574944    1.14742723296697   -0.44425236975403
C         5.43642258223724    0.67902863719437   -1.79922935930753
C         3.93924709960272    0.45063719070967   -1.95152002498735
C         3.37249039613417    1.11405540476337   -0.69554587655282
C         2.79550244351778    2.51407247144587   -1.05688106787529
N         2.51488219944587    3.48586743514961    0.01998871378031
C         3.65334258357834    4.03910296932166    0.74545984219387
C         3.67595132027424    3.66971555492258    2.25609416056775
N         4.89883436972953    4.35953835607041    2.73231540417507
N         2.32617452893566    0.39412894199904    0.04294307877635
C         1.35305634433133   -0.29628876597290   -0.62793170456779
C         0.76852836593830    0.25998304013770   -1.90226335502802
N         0.72331803577910   -1.27121209759077   -0.06250164962423
H         3.09767036666438    1.70901691034636    4.42693122088171
H         4.77898469342453    2.26138223643238    4.42018308406841
H         4.50235875920736    0.70883129620482    3.77463584911695
H         2.56751101027717    1.79644931190684    2.40692870432268
H         5.50148306227688    1.50388603019742    1.78928070741009
H         6.07739218344574   -0.17006780168698   -2.06570528794128
H         5.73615362516675    1.54246608283197   -2.39729003030730
H         3.73189798177744   -0.62597305989372   -1.97329074212241
H         3.59168646671047    0.85681139438388   -2.90998770256999
H         1.88623887272441    2.22353743091417   -1.59506877841443
H         3.53960654314184    2.93364982269610   -1.74575741017654
H         1.76554626509214    3.15344215772629    0.62468137546043
H         3.59997483901864    5.13627643463505    0.74891374723641
H         4.53913644956780    3.75101608157519    0.16510122912967
H         2.76879410531463    4.14532014309848    2.65309080442951
H         5.69566878610203    3.75318686422410    2.52310153453174
H         4.95260574674781    4.66564320427511    3.70174500939429
H         2.56671783826831    0.01516228495971    0.95333793777026
H         0.00635033750184   -0.44216214914391   -2.22973276364185
H         1.54806183565668    0.17736326814836   -2.66516190934667
H         0.34279324332914    1.26832599466144   -1.88219957177346
H         1.08233622436480   -1.55224982433034    0.85136301269184
