39
 energy: -52.267441828382 gnorm: 0.114745907324 xtb: 6.4.1 (79825abcba525fcdf90b791dcacef51065a7a4e7)
C         3.64053830020944    1.38674759438396    3.54897368720412
C         3.68941302127371    2.10406000806496    2.19355282530457
N         4.86198061266815    1.55450294968750    1.53541146863413
C         4.77722489442519    1.22624855999011    0.20764337295601
N         5.84601076670928    0.89247271894272   -0.45307350609263
C         5.44262634080551    0.39355364359507   -1.76652556040395
C         3.92334179534818    0.40553514007951   -1.85883183633802
C         3.45981144980519    1.11111809745050   -0.58364546480337
C         2.96442394070049    2.50408060279534   -1.07126485707850
N         2.58783852794226    3.54047972968172   -0.08798362652940
C         3.56050149405935    4.23092803576398    0.75206271467520
C         3.70440886974219    3.66024062168259    2.19170878775440
N         4.92258181232124    4.23668176696477    2.80965330520338
N         2.41750768599816    0.38889673970287    0.15826834683477
C         1.26751351059331   -0.09331292006512   -0.40626315166870
C         0.88968334888451    0.19714227331766   -1.83731611013288
N         0.45948347877689   -0.80408722941191    0.30692989971179
H         2.67170602067502    1.32669108655040    4.05196004535896
H         4.33523608720531    1.89397591757310    4.22479543344080
H         3.93471975993917    0.33750478316939    3.44716631571837
H         2.77701603705173    1.83957492908993    1.65363006338929
H         5.76197657478957    1.72015344012330    1.98212942355995
H         5.93531747018890   -0.57110316249004   -1.93830715018058
H         5.85976081355246    1.09478117092022   -2.49269239741252
H         3.58443865114129   -0.63604587752999   -1.91184977144247
H         3.52779834433076    0.89319584368150   -2.75892549396812
H         2.11403943131716    2.43841863682242   -1.75927034030668
H         3.76423746539509    3.04002348887788   -1.59790536389434
H         1.84325715516061    3.25099370596193    0.54404528663370
H         3.12890352795756    5.23334125816104    0.87672461295286
H         4.52883138506272    4.15851191948445    0.24065868484469
H         2.78511638212454    3.95786268321999    2.71426281853477
H         4.63594804308755    4.84421834516258    3.58109225515768
H         5.25112011876987    4.94030121462978    2.15134672071831
H         2.78455652996479   -0.26533261953587    0.84204806955296
H         0.24487222908004   -0.53610864835243   -2.31451745703165
H         1.72577263419272    0.17006793812693   -2.54210994015271
H         0.29495165944149    1.11617133622143   -1.82792115423928
H         0.76374374996835   -1.01754248731541    1.25818560806715
