39
 energy: -52.271074021481 gnorm: 0.111449206001 xtb: 6.4.1 (79825abcba525fcdf90b791dcacef51065a7a4e7)
C         3.86139479282916    1.86991120207557    3.95843339915698
C         3.63130747475788    2.13695026359748    2.46516800898046
N         4.58875947975676    1.29874816567945    1.76461060947568
C         4.76187183406896    1.10946338332767    0.41846574300174
N         5.86501083302459    0.86216917481514   -0.22355161599675
C         5.61737201889207    0.70639145448933   -1.65575406831431
C         4.10728891766881    0.70449711598174   -1.84689534174684
C         3.54611756804608    1.22230848984326   -0.52184209240969
C         2.91427772956483    2.60559710304231   -0.85473403283427
N         2.14212600017666    3.26642757545264    0.21758425123725
C         2.71682764068762    4.15175759131207    1.22474796576822
C         3.83068257665659    3.65570181502635    2.19026861313129
N         5.14451570481893    4.02377430849327    1.61022525872565
N         2.52144854698531    0.26296280063996   -0.08808383406250
C         1.45032443858561   -0.23858807354314   -0.77717633075881
C         0.71110416479062    0.59560804280124   -1.79339612663514
N         0.88501517918407   -1.35117691631031   -0.44652771535063
H         3.00668683306054    2.17169961179618    4.56969120806224
H         4.81939334676395    2.20727199801131    4.36469327124959
H         3.86461589632088    0.77631531023059    4.00151011944798
H         2.63699170314810    1.83056205899407    2.13140219177140
H         5.51536826647369    1.28857383485832    2.18684562467131
H         6.08555386487589   -0.25776107525216   -1.88820165678819
H         6.09877167798425    1.45713166369585   -2.28637518746202
H         3.76454876866343   -0.29459169948416   -2.14169696910576
H         3.82441464065816    1.35324148179363   -2.68567366730571
H         2.27744549578420    2.57311588351542   -1.74591669097731
H         3.66160450309462    3.33663138679916   -1.18846782262254
H         1.34855542842537    2.71497007932974    0.53977131188053
H         1.88202299176941    4.46664697427743    1.86552525543477
H         3.10980002567414    5.03477840132714    0.70485575829522
H         3.76772350830767    4.32311754059944    3.06051724911783
H         5.28701801345293    3.49315738359959    0.74737159993112
H         5.87068068589731    3.72574169117177    2.25848931326200
H         2.92655542528556   -0.50070481318753    0.44388968332235
H         1.28060668653666    0.96907968332950   -2.64035848482276
H         0.20306360955510    1.42109112155775   -1.28645910435694
H        -0.00350763376877   -0.13364387898574   -2.18827596553142
H         1.35837723275408   -1.84671063048282    0.31070381569137
