39
 energy: -52.264679016603 gnorm: 0.124135450838 xtb: 6.4.1 (79825abcba525fcdf90b791dcacef51065a7a4e7)
C         3.91673560910543    1.64270656329906    3.80983369803584
C         3.66127400792281    2.10099630901917    2.36802877480552
N         4.74473160136804    1.65706306696752    1.50830748869141
C         4.63487972564645    1.32719891938218    0.18277935769269
N         5.77465500170999    1.13243324718479   -0.41155643095183
C         5.52454139213722    0.65802237425010   -1.77139945601738
C         4.01581759974492    0.59592504373020   -1.96319615956574
C         3.37987243572872    1.17466084837076   -0.69850386415884
C         2.84550724003722    2.60456463651392   -1.00404439563824
N         2.39520400983769    3.43184260928661    0.13420859610736
C         3.42681187926962    4.15831965215397    0.86666083721602
C         3.59713979134424    3.65542644135503    2.32852988279042
N         4.77215462573798    4.41879080765908    2.81298847763286
N         2.38383663182447    0.32383649470531   -0.03333655145314
C         1.39535443212538   -0.36419713502843   -0.68389112314127
C         0.76911385556327    0.02976940851421   -1.99829043027496
N         0.86862166573881   -1.42988686856999   -0.18028912241104
H         4.60668375661551    2.40595613748232    4.17950881688187
H         4.28912158646950    0.61861966603622    3.90572598530352
H         2.97890693430984    1.63395377679821    4.37394247867567
H         2.68234265528745    1.80168929918447    1.98586921779907
H         5.66092561424478    1.83497252501778    1.91564827275987
H         6.00191225647148   -0.32364222418002   -1.87754979192640
H         5.99680425962920    1.35934264386767   -2.46288853898064
H         3.49194879903350   -0.35859378540285   -2.09362833560201
H         3.74037490766402    1.09801698354128   -2.89939655846220
H         2.01886811494350    2.62424387168531   -1.72313920381412
H         3.70259541953981    3.09417915422892   -1.48359018315196
H         1.66318898878035    2.92194482824760    0.62596299638468
H         3.29895214764570    5.23025482406064    0.66354378093274
H         4.41689905046618    3.93901432367242    0.44704967827694
H         2.75822420115527    3.95768402286129    2.97009147410327
H         5.65639878773743    3.95407652980280    2.59269193368547
H         4.73296696244181    4.39036320919389    3.82986679129700
H         2.62985808958099    0.02171781023040    0.90394321287245
H         0.25174338062050    0.97090990572473   -1.83173178319966
H        -0.07994272470198   -0.65339695995884   -2.09262654118669
H         1.44189696887353    0.00574692360187   -2.86153678431570
H         1.31733552566522   -1.70728325368162    0.69420044553880
