39
 energy: -52.270311302524 gnorm: 0.117904787504 xtb: 6.4.1 (79825abcba525fcdf90b791dcacef51065a7a4e7)
C         3.49800585261173    1.66481786922455    3.81311230065473
C         3.71287902726454    2.06242874798816    2.34688359255038
N         4.68710471159884    1.25152421142482    1.63737963105795
C         4.76627129494334    1.18540506871909    0.27090112740158
N         5.90952116091892    0.90397852506729   -0.28049273926802
C         5.75057207793442    0.73375251982939   -1.72359836031342
C         4.24096240729682    0.63216440726722   -1.88987530901205
C         3.53646180092484    1.20155276270104   -0.65768872846587
C         3.05218897417814    2.65207053380495   -0.94924319102496
N         2.18660548941123    3.21228578789504    0.10891832505988
C         2.68980857292569    4.10325169164154    1.14883964873042
C         3.77912548212456    3.60345845658246    2.14008615447892
N         5.09192077054495    4.05948731369794    1.62366449546644
N         2.61517063758666    0.24626840614448   -0.02753689472656
C         1.40535020886273   -0.14220736535706   -0.53658471167173
C         0.72540784311710    0.64651044218298   -1.62774694723498
N         0.72088134290890   -1.06128709257685    0.05801751628759
H         2.60166451687207    2.18901589224660    4.15520393536313
H         4.38236471454798    1.90679972170606    4.40974853679131
H         3.23887820583530    0.60331805278499    3.87547370653086
H         2.74087382412298    1.89106791709706    1.87807814510787
H         5.54657109267610    0.94738606905577    2.09103949858823
H         6.29495885531135   -0.17586822035561   -2.00475554214089
H         6.18289199044097    1.63854141776093   -2.15660647632011
H         3.93433569148801   -0.42025126994109   -1.85891453906934
H         3.83533154986279    0.99117174483957   -2.84434558642091
H         2.39951145877049    2.69588782301505   -1.82839559769864
H         3.94056017467753    3.28824274258100   -1.05106754955834
H         1.59111837752361    2.48365926592228    0.49899858906224
H         1.77777850712704    4.29627015137591    1.72986863771079
H         3.02526725394204    5.05620020036312    0.72012347658117
H         3.62444667856246    4.07043253800082    3.12230300725186
H         5.45201690817498    3.63399848329366    0.76595377199783
H         5.77488200620135    4.07327142192164    2.37848848092615
H         3.10762544609280   -0.37477404418935    0.60656889177191
H         1.22562678903193    0.63430177064747   -2.59252224455613
H         0.61615725195764    1.66576925422974   -1.24605539113297
H        -0.22456788622861    0.17407020848268   -1.89747793408337
H         1.26732459539821   -1.50229395301726    0.79959529848081
