39
 energy: -52.266661809515 gnorm: 0.107192277664 xtb: 6.4.1 (79825abcba525fcdf90b791dcacef51065a7a4e7)
C         3.76377936853615    1.87183482223805    3.92219809836092
C         3.62251876145142    2.02905687185115    2.40252108683195
N         4.56147008729828    1.15796630280918    1.71721138302901
C         4.76249856800606    1.08178230209178    0.36381337774032
N         5.90164211302633    0.77113196231252   -0.18034166889217
C         5.77571227563808    0.67154581944173   -1.63327656742596
C         4.27782417469018    0.58739341761975   -1.89045189024144
C         3.60354272562738    1.17096454767188   -0.64803599852750
C         3.10015699493915    2.61862476868286   -0.92081555640029
N         2.13857996765159    3.14826395193498    0.06793803431211
C         2.63347618259621    4.05741255958769    1.09604138913105
C         3.74981046943942    3.53872898708829    2.04669346790550
N         5.04467910933705    4.03569171281334    1.52283433970972
N         2.54517010181896    0.29711077850092   -0.12395210714478
C         1.27765905001481   -0.00277553247528   -0.54489450225293
C         0.72829459455409    0.59082075692865   -1.81803022310519
N         0.52646466083783   -0.85654931180537    0.06628002492998
H         3.36378165659378    2.73950652145466    4.45359785525673
H         4.81098944248855    1.89849203054212    4.23725535255597
H         3.28621263552215    0.93164967009644    4.21511420439370
H         2.61104719148853    1.65061729947786    2.23625035869814
H         5.43149397777424    1.16621021989876    2.24634296771263
H         6.46747898091637   -0.13930393464246   -1.89172911395523
H         6.17438249417228    1.63032469678060   -1.97216388004998
H         4.05519330835048   -0.48613901390275   -1.86762895217653
H         3.86107575408089    1.04231658834864   -2.79808719226844
H         2.57930253674925    2.76982291929936   -1.87300598026233
H         3.98397317362322    3.26772971167988   -0.87817271667459
H         1.54883187589091    2.36636791598452    0.34811637513581
H         1.81434803555369    4.57267581638973    1.61583222176654
H         3.15412928090784    4.81349726056573    0.49462869212627
H         3.65242423080775    4.10659312265017    2.98199370159348
H         5.34845979126431    3.37596255199421    0.80252024465693
H         5.70059433601975    4.23602231844880    2.27518277350902
H         2.92188574428096   -0.36738147797013    0.54450206361940
H         1.06019846552851   -0.01179243956169   -2.65937235248119
H         1.05934505229120    1.62229908962802   -1.96959110862311
H        -0.35217157147611    0.56187706647999   -1.64435352187447
H         1.11457146600117   -1.39199583499348    0.70694553334481
