39
 energy: -52.269952875268 gnorm: 0.112645915348 xtb: 6.4.1 (79825abcba525fcdf90b791dcacef51065a7a4e7)
C         3.66090166921736    1.45453300791563    3.71272036088828
C         3.61837822693064    1.90356420224589    2.24620943459576
N         4.75510856026789    1.43167435070889    1.47469022443511
C         4.69499130511874    1.31156895048947    0.11092219691411
N         5.83571269316991    1.20528854412822   -0.50366349340743
C         5.64978158308111    0.79585167343188   -1.89455767186542
C         4.21094465379806    0.30203099106830   -1.94727347614078
C         3.49224239191763    1.03021544725739   -0.81060183632666
C         3.07985899664420    2.46144197568548   -1.26343353208205
N         2.58194720473814    3.42895831964278   -0.26404488695314
C         3.43135343254141    4.00490523750444    0.77290456222628
C         3.53833371715457    3.45761081361541    2.22479928802977
N         4.70247895000677    4.07072051638836    2.90813486441632
N         2.51974791812178    0.26009348546400   -0.02345281837240
C         1.23268192444498   -0.09430447274663   -0.32606108197920
C         0.55096518748174    0.61753799553782   -1.46780317526805
N         0.48356869938184   -0.78999602000124    0.46235480460528
H         2.69417543751965    1.36527443228511    4.21542439580404
H         4.25548387590981    2.22087923731455    4.21849311392315
H         4.16030888317363    0.48622641128546    3.81660837529190
H         2.74964170600007    1.63658704918472    1.63961462248777
H         5.67126931926435    1.69786896657904    1.83075153111020
H         6.35379836972651    0.01314518480646   -2.20204284900883
H         5.84784607875381    1.65047873063387   -2.54526692685431
H         4.18242538234677   -0.76426317159775   -1.69279229127709
H         3.75885087271822    0.32011461063770   -2.94713364809236
H         2.36356261577818    2.49514262156104   -2.09204719749802
H         4.02299897502510    2.88086607501090   -1.63606885212044
H         1.83861087331334    2.92227874383496    0.21385785753289
H         3.19488141335197    5.07556770134289    0.83933144381185
H         4.49115563844940    4.03031575615315    0.48897756423024
H         2.71880650790463    3.81114778042874    2.86521091203179
H         4.51190356422531    5.05718210911732    3.10036444886971
H         5.57061277944827    3.91964353170033    2.39832636855279
H         3.02106050062514   -0.17304933277922    0.74555212185383
H        -0.37585900473993    0.12950156529157   -1.75759065065016
H         1.20134316937436    0.51327479400134   -2.34110170596620
H         0.24149334826762    1.60315419238609   -1.10559279665444
H         1.01583767779710   -1.30977790179138    1.16202716482140
