39
 energy: -52.261312628125 gnorm: 0.123556182082 xtb: 6.4.1 (79825abcba525fcdf90b791dcacef51065a7a4e7)
C         4.06496579003161    1.51474991920801    3.70307848087830
C         3.71130287265168    2.03954290737622    2.30536377389991
N         4.78006067538698    1.61091462598523    1.41986261867407
C         4.73764973302796    1.35491982128764    0.07428818325323
N         5.79315962959278    1.11919158113359   -0.64722925148109
C         5.45228628471752    0.67828720808930   -1.99860049352210
C         3.96242340258998    0.36717752258943   -1.97837951410707
C         3.44765102443919    1.05807760581065   -0.71486281480331
C         3.03555316361454    2.54123164403523   -0.94714599271640
N         2.36389955363741    3.26955822365993    0.14884831796797
C         3.11844597473661    4.21038220817515    0.96981109984467
C         3.52176646932086    3.58392673634397    2.33504382050967
N         4.74641526728891    4.24021945766908    2.85234481663269
N         2.45890200529019    0.24096129204199    0.00147038473521
C         1.22893797075174   -0.07446788019717   -0.50980400038013
C         0.86586541491275    0.32864632849261   -1.91718088235849
N         0.49927667650468   -0.87746691946969    0.18987015726736
H         3.64469624062197    2.08645036305070    4.53480569155838
H         5.15048872972483    1.42214862426322    3.80149374878368
H         3.72291076243318    0.48494136600164    3.84559391579673
H         2.79397689887751    1.61878712696806    1.88653823962967
H         5.73679139913003    1.84023271517265    1.68267299136636
H         6.07733230703784   -0.20711163196853   -2.16653673883874
H         5.85037942949235    1.44976959761977   -2.66145511938505
H         3.86806245879735   -0.70435223955251   -1.76512555936705
H         3.36059128000520    0.60698718590531   -2.86422690250739
H         2.38486424814866    2.47594833354317   -1.82644053283758
H         3.94332684613203    3.12241891732748   -1.15319204054244
H         1.59564074780374    2.79431027538085    0.61957320158994
H         2.58941438864729    5.14836933510961    1.18650301130353
H         4.04045415974154    4.50713948171283    0.45379077297883
H         2.75691305459294    3.72615400541791    3.11061518337065
H         5.51114761033869    4.38041797681268    2.18758434771633
H         5.06278774112161    3.80671974090977    3.71742964249757
H         2.96725358735123   -0.36400246820771    0.63856781419030
H         1.57790052565546   -0.20222411963339   -2.54355297254226
H         1.00039131089695    1.40737307379817   -2.03868830541943
H        -0.19679701586419    0.15747700635561   -2.11682578704248
H         0.92184537505708   -1.03814084027645    1.10564549732802
