39
 energy: -52.265326198924 gnorm: 0.103010974634 xtb: 6.4.1 (79825abcba525fcdf90b791dcacef51065a7a4e7)
C         4.18616022223398    1.82905701347302    3.99241012673433
C         3.74266874980607    2.05491746146185    2.54106801920620
N         4.69242776052252    1.37770451617071    1.67537859314573
C         4.74735276876094    1.08609625503450    0.33752566739359
N         5.89390470845371    0.73242329607069   -0.16306442382320
C         5.73528402792506    0.67353989930658   -1.61501751158934
C         4.24162027886649    0.66303910965814   -1.90784489343926
C         3.54733706409571    1.13164942947828   -0.62832031010590
C         2.98241418236145    2.55810929512599   -0.89213916987942
N         2.07577533380157    3.14819415728272    0.11413492669958
C         2.68977011886398    4.03495772002414    1.09654560655674
C         3.65959485036079    3.57594503214794    2.22247704154633
N         4.93620820367217    4.20171069221643    1.80204771839991
N         2.42983478698757    0.29710806908300   -0.16662094616766
C         1.20990397072941   -0.03630524728367   -0.69036985790292
C         0.70299599652634    0.49887109471458   -2.00629653185386
N         0.41515237850485   -0.92741518067319   -0.19940145724272
H         3.31530179179987    1.97272361671532    4.63754852203034
H         5.07529964783680    2.38199078430347    4.30913704709832
H         4.45401476531639    0.77010769458269    4.06095378912565
H         2.75586061905451    1.59545007577266    2.44600684831159
H         5.64622097188128    1.50119458748445    2.01007020238193
H         6.24690108695477   -0.20753478038701   -2.02093820876837
H         6.21286866893002    1.50762068305358   -2.13392178638828
H         3.96104236315285   -0.38115705566929   -2.09084125615958
H         4.12387312767164    1.34382341395268   -2.76054913037497
H         2.39275490889687    2.49123622313568   -1.81335944516421
H         3.79145641135335    3.25652063881283   -1.14105469569541
H         1.59534772193835    2.37881275458572    0.57771414791291
H         1.97153346289711    4.64542293260354    1.66056509625638
H         3.30588031269998    4.72067149777888    0.50102415624858
H         3.38693376542826    4.04953117086117    3.17542634795941
H         5.28946250074422    3.50338930598720    1.14330929613014
H         5.56364864432638    4.16852608438231    2.60304870394317
H         2.54178991440562   -0.32417063107771    0.62822145021777
H         1.56780690398182    0.47014748719231   -2.66389555591157
H         0.27200727127108    1.49509935658954   -1.87105368608878
H        -0.00407390021058   -0.15122840772394   -2.53149293494028
H         0.69364795177313   -1.36274625390328    0.68147989373032
