39
 energy: -52.274730984987 gnorm: 0.101524006454 xtb: 6.4.1 (79825abcba525fcdf90b791dcacef51065a7a4e7)
C         3.79855099657808    1.75935000342884    3.93163609548745
C         3.65309038580113    2.06320192203390    2.43477044932995
N         4.53478280509202    1.17975897147013    1.69165216926697
C         4.72988988782772    1.21091612457551    0.33560458405762
N         5.87763283134017    0.94152798144442   -0.21245792579252
C         5.67646006114781    0.80727112819919   -1.65408899907153
C         4.18113251318761    0.61900854195581   -1.86726088515313
C         3.52475956770622    1.22268431105275   -0.62486075298664
C         3.00954995868697    2.64834538276593   -0.97922717252379
N         2.14055739233259    3.17938740702619    0.09111296067485
C         2.78145174005863    4.09980711039675    1.02414670514424
C         3.79449341778456    3.57176232401529    2.07955635094940
N         5.16068629657497    4.02141261339481    1.71981093530971
N         2.45979862177076    0.39129481087929   -0.04772419554168
C         1.32929179832631   -0.12949107037950   -0.61732488055047
C         0.72542750803576    0.51494830290789   -1.84005879489560
N         0.66738075878064   -1.04982429981079    0.00042708574331
H         2.97786456912167    2.23265128009550    4.47725293513679
H         4.77466016191265    1.95982763477572    4.38290124085116
H         3.58653802864475    0.70070145971600    4.11088929793880
H         2.61069485680572    1.85292588581361    2.18350813844770
H         5.41450353433102    0.98306204919441    2.16535198524326
H         6.21508690176632   -0.06319580082006   -2.04776991988734
H         6.06282718788762    1.67973781684245   -2.18565442927775
H         3.96293920436750   -0.41847983023471   -2.14755860168066
H         3.80741886042211    1.24151145485950   -2.69022164491616
H         2.45470183591090    2.63738220233321   -1.92412940035071
H         3.86549735227757    3.31195903036796   -1.15602552858669
H         1.74660517494455    2.40171682909621    0.61807999130952
H         1.91675387217181    4.51410865488701    1.56015182441483
H         3.39101728814469    4.85690646847942    0.51456711719570
H         3.53409472758034    3.99436351821967    3.05952626633250
H         5.59525127985597    3.56559913444847    0.91373090855860
H         5.85872650020890    3.69756808734940    2.38633167740524
H         2.79636971306146   -0.11802570816369    0.76320620810394
H         0.52706779905797    1.54478495511913   -1.55501613265257
H        -0.15804809358168   -0.05350110744299   -2.14476978223146
H         1.43179874290243    0.35828999222119   -2.66158561592502
H         1.11882889038652   -1.42723049475329    0.83516298928481
