39
 energy: -52.267702900322 gnorm: 0.124846899687 xtb: 6.4.1 (79825abcba525fcdf90b791dcacef51065a7a4e7)
C         3.93451839682949    1.41401645996701    3.66214203079535
C         3.72046919830103    1.93059024625097    2.23335722690848
N         4.86021546585426    1.48216117379729    1.45235302232044
C         4.81746777285945    1.31006095427259    0.09350911965203
N         5.94586964643169    1.18696415964280   -0.54037789857624
C         5.68791215484193    0.85611797881985   -1.94066154038072
C         4.20971965749052    0.50041430616546   -2.01354071194929
C         3.55582031375082    1.09272727134135   -0.76438540873425
C         2.95796424843513    2.50406061661127   -1.03684148699396
N         2.25763502532473    3.24897819073162    0.02965675056961
C         3.10551018408319    4.05557393777684    0.90085189685617
C         3.45067506334201    3.46198379062827    2.29637553192245
N         4.52786011803815    4.37758870324961    2.74294594961181
N         2.60081892996704    0.20660838174096   -0.08526642314739
C         1.28724856728311   -0.07194882187130   -0.35106209440004
C         0.72531092100521    0.32578333071962   -1.69310070657548
N         0.46843107321885   -0.73447040248416    0.39550340007652
H         3.12027387757839    1.81850845807034    4.26929121876668
H         4.91058972333571    1.60074709556725    4.11934773194421
H         3.81063601369623    0.32663311492218    3.67042250251185
H         2.77766111516991    1.53928410503978    1.84357572112934
H         5.75855698305837    1.68425702445033    1.88724328384859
H         6.25418393633270   -0.02597833430826   -2.26324266705179
H         5.97479351805139    1.65311498300405   -2.63025152268002
H         4.12443630535133   -0.59061454398455   -1.94325512696897
H         3.85220344917000    0.87749821792419   -2.98019786880317
H         2.37019112062963    2.31001239475287   -1.94110079735907
H         3.80418730822716    3.10760696767607   -1.38887133252749
H         1.46495343809789    2.73773373130925    0.41429830601090
H         2.57677561950495    4.99985647712399    1.08905366709644
H         4.08218728911934    4.13446276739788    0.40656519795691
H         2.73557308517289    3.75244068505612    3.07804312998484
H         5.42180114138173    4.41881964188036    2.24741883845434
H         4.70681222754502    4.20433718550123    3.73003528609485
H         3.07165675518320   -0.48649395912224    0.48763539739075
H         1.33678669312936    0.11785996827735   -2.56718575618529
H         0.51172979981165    1.39749531291644   -1.64483900213789
H        -0.25429258009159   -0.14248190334861   -1.83279005940123
H         0.96360984496119   -0.82126233300712    1.28448598346555
