39
 energy: -52.263345648853 gnorm: 0.121564769491 xtb: 6.4.1 (79825abcba525fcdf90b791dcacef51065a7a4e7)
C         4.02730340705522    1.61169596521575    3.92407305186159
C         3.71045696196766    2.03330586218735    2.48325906078681
N         4.63470912476585    1.27188195959832    1.66102472042528
C         4.71680536425270    1.14481467847863    0.29903474306185
N         5.87734811813417    0.96666608536111   -0.25923037873827
C         5.71210846621773    0.74061667616363   -1.69394047451261
C         4.21440275417160    0.62960758322251   -1.94181969556122
C         3.54552295911166    1.21993759610294   -0.69967709031473
C         3.12746157668605    2.70965493178625   -0.87141214902775
N         2.20540949531735    3.12832928592377    0.20437289066874
C         2.53955121390472    4.02654193449397    1.30438802886905
C         3.70845101471156    3.56746099921952    2.22193486786128
N         4.92271145046916    4.24978936060816    1.71391447399354
N         2.47038647964564    0.36551245495314   -0.17768461056794
C         1.29796895466555   -0.10073285684934   -0.70849625570595
C         0.83430256159354    0.28927193789916   -2.08977904522831
N         0.50008851184295   -0.77652488646357    0.04876783422168
H         3.19738277116399    1.91507196156638    4.56783759624926
H         4.85270829045557    2.02766070277725    4.50913777175716
H         4.05518557584666    0.52840623191813    4.07744802328941
H         2.69845930514668    1.65669844412570    2.31603230120713
H         5.62429756373686    1.34134408208589    1.89098015771251
H         6.28230145993971   -0.16706853141577   -1.92589678308982
H         6.08630186919617    1.58407453183701   -2.27840401315825
H         3.97967399793337   -0.43764644191038   -2.03362664686498
H         3.81700351161240    1.05036859112103   -2.87427354842054
H         2.59324634674869    2.70009888043357   -1.82814598359689
H         3.98084262257304    3.39360528576877   -0.78064115728297
H         1.65801556201267    2.29975882724859    0.43129799357835
H         1.68073565279564    4.34268123623392    1.91195812844628
H         2.84586418215843    4.92968712287919    0.76130232200918
H         3.57303462218139    3.96229984972582    3.23805737970012
H         5.10113357883342    3.91046914506281    0.76554482174457
H         5.73952937501316    4.11972284887106    2.30744331130945
H         2.71289000013221    0.04050028270088    0.75282854673321
H         1.72603174756064    0.11056739317091   -2.68479431510418
H         0.50120170158227    1.33099795309775   -2.07071643465459
H         0.01377024885095   -0.38833651587973   -2.34664860708441
H         0.88629333917801   -1.14827527683496    0.91806200709844
