39
 energy: -52.268604906908 gnorm: 0.114972121828 xtb: 6.4.1 (79825abcba525fcdf90b791dcacef51065a7a4e7)
C         3.73610247662913    1.70325045830924    3.81492899529267
C         3.63392295805893    2.01326627283022    2.31574885261271
N         4.71605395265177    1.32050999436885    1.63813611633506
C         4.74960855821091    1.21719405888980    0.27208248746311
N         5.88416390439478    0.88387378690271   -0.26823050634303
C         5.64148221383095    0.45347485079900   -1.64396954201679
C         4.17544784727639    0.69093953344262   -1.97750108680718
C         3.55474185540573    1.25866493147196   -0.70030888727893
C         2.95563957022843    2.67158433597430   -0.96157730870460
N         2.16674301666478    3.27959025798457    0.12963885748339
C         2.86945614832629    4.19925547708377    1.01782808222500
C         3.67793710105293    3.56334479035294    2.18442587711329
N         5.05936277012272    4.07675113864307    2.02267859848257
N         2.58526897465080    0.32894466358876   -0.10517907357222
C         1.41014182967500   -0.19570588676061   -0.57157648408742
C         0.59919954052443    0.51179983095242   -1.62838331720522
N         0.73739024508272   -1.18716292723407   -0.09076965136550
H         2.86623995746563    1.97978441476544    4.41668161644535
H         4.66677765875907    2.13751590886205    4.19159575268603
H         3.83036617454205    0.61896718072525    3.93009010524956
H         2.75651772251105    1.59888231170487    1.81337131203684
H         5.60296465637879    1.48006291639932    2.11239557002874
H         6.08574155567042   -0.53521537737798   -1.81112660702971
H         6.18506730301212    1.16558299145927   -2.26883491692924
H         3.56246498589230   -0.11457526024674   -2.39934843565502
H         4.13010018526177    1.52162073289051   -2.69328633484113
H         2.23547111971634    2.62145185784078   -1.78599285270536
H         3.79096602120533    3.32297904288492   -1.24828504347321
H         1.47162483800311    2.72422317709455    0.62566530972769
H         2.17308342757194    4.94535123436931    1.42409869610681
H         3.62452107857804    4.76302399631830    0.45525989907589
H         3.37862792873359    4.04964286295615    3.12286526590024
H         5.56173798743058    3.64267565989691    1.24449142098836
H         5.58360242378915    4.14216915605956    2.89289614126620
H         3.08784273087456   -0.22825696035152    0.57837164495188
H         1.13841767367930    0.76139119991806   -2.53838736792535
H         0.18887154009895    1.46871528354110   -1.29303811560496
H        -0.14513133315397   -0.21084076830103   -1.97791240258217
H         1.23809293550258   -1.63586287584234    0.67798912444668
