39
 energy: -52.268756751420 gnorm: 0.120933500842 xtb: 6.4.1 (79825abcba525fcdf90b791dcacef51065a7a4e7)
C         3.66855806568842    1.42658347077922    3.70251805242065
C         3.68865733435904    2.01322295842407    2.28493502287089
N         4.76324376911526    1.39253764108881    1.52989098603600
C         4.79108557621437    1.28876647756297    0.16374344438829
N         5.90858197801366    1.25020346182298   -0.49955976849155
C         5.57866338704582    0.92314375387659   -1.88555444994002
C         4.13889382049127    0.43066564927763   -1.84789109975256
C         3.48480165734424    1.07745310412283   -0.62615559883384
C         3.01712758631935    2.51500666133296   -0.99797139094675
N         2.35134800993672    3.36791352362818    0.00804512855447
C         3.11999488504128    4.15320411337396    0.96771728143176
C         3.67534041418334    3.56936493287272    2.29801701740637
N         4.97103148870892    4.27824930650473    2.42744919618323
N         2.39131450559654    0.37064187394841    0.05438902880938
C         1.20522519909671   -0.09931983958558   -0.44163212100748
C         0.73180665001833    0.31074580009865   -1.81376683571243
N         0.54860698041915   -0.98987225462118    0.22359419646949
H         2.89623660899924    1.87037906074693    4.33639743860741
H         4.66267157621036    1.61415041507630    4.11866415705500
H         3.53257932928367    0.34063824277250    3.70963724088106
H         2.76454175285159    1.73072792718200    1.77489175365734
H         5.66936563030827    1.27304234630300    1.97894980317645
H         6.34060617752040    0.16564421509365   -2.10567686255780
H         5.80901348875318    1.76389424748997   -2.54367066442903
H         4.20635807778991   -0.66309642105227   -1.80677623494203
H         3.68299595762411    0.64676780137518   -2.82251576651275
H         2.36127147873049    2.55988033115999   -1.87470170129610
H         3.86190517086358    3.11760267711855   -1.35506466530417
H         1.54493892636356    2.81567107684229    0.29509356473867
H         2.48894423931662    5.03121145273702    1.16143833087057
H         3.99806681552135    4.43369257205771    0.37210259426914
H         3.11759789576410    3.86373178728604    3.19746779105579
H         5.55040025606780    4.01115393663345    1.62784332228445
H         5.46682916780320    3.87514268471628    3.21996103286249
H         2.75429288507623   -0.08328544184408    0.88655031460752
H         0.88517054146431   -0.52827607698499   -2.48732549788723
H         1.27954488802978    1.18845161067600   -2.16891192962599
H        -0.33201112319014    0.52786137364366   -1.67390590949047
H         0.93532298320168   -1.28642287193531    1.12110931263841
