39
 energy: -52.262492162526 gnorm: 0.116978251944 xtb: 6.4.1 (79825abcba525fcdf90b791dcacef51065a7a4e7)
C         3.99405353691817    1.63098626719487    3.85379622902103
C         3.63541598994090    2.04195482313351    2.41971969423903
N         4.64447933708702    1.37095135873300    1.61870579734957
C         4.72296745125334    1.19152831248630    0.26240583684170
N         5.88549699485589    0.90757377441232   -0.24568002111862
C         5.73789605213933    0.72871963916781   -1.68894739171244
C         4.25668891658635    0.51603449247120   -1.96765868182748
C         3.55989820949809    1.11645513448042   -0.74586258016781
C         2.99346075717960    2.55314741021579   -0.94230570134939
N         2.18240376673574    3.12045280737499    0.15456842120257
C         2.78499454771307    4.08253237243367    1.07095110141902
C         3.71796407010382    3.58182625351479    2.21017694230008
N         5.08507044396405    4.10501956414870    1.97486001106544
N         2.50486755723304    0.24573570484897   -0.20995689028753
C         1.20274514308523    0.04387616983444   -0.58068386425206
C         0.69832752874254    0.37772804821889   -1.96239953744831
N         0.36372195474327   -0.52694307651129    0.21741540547411
H         3.29406187657916    2.03273199286605    4.59125815702241
H         5.02529947055244    1.92631763718412    4.06811334409868
H         3.87178983684089    0.56400420550834    4.06455394960152
H         2.60885988195194    1.76034873695915    2.17310711221782
H         5.62030454734583    1.55275305317330    1.84608889427764
H         6.31098863329073   -0.18994531984964   -1.86340600235782
H         6.20897640305084    1.58856450549475   -2.17039271051863
H         3.94992308768248   -0.53666042301714   -1.95076473350761
H         4.03359140512179    1.01320162158809   -2.92028059851187
H         2.49183539437393    2.73655185298368   -1.89915033252769
H         3.91104125807373    3.15505707810395   -0.93618557871402
H         1.37718525454131    2.57792253709080    0.46270503123740
H         1.91482217408996    4.48831997173962    1.60460466300312
H         3.30546233825757    4.90044438712138    0.55658336896183
H         3.40537157282224    4.25266196804226    3.02196857567834
H         5.56176483695676    3.58890509062117    1.23137768458270
H         5.55154948178828    3.86166612852448    2.84638839143529
H         2.79419345116588   -0.45063870804649    0.46949053741005
H        -0.37824229609011    0.51456047401744   -1.90380159002222
H         0.82782912243306   -0.54775035950802   -2.53093424649976
H         1.33749052703751    1.11917566861260   -2.45243479015556
H         0.77797599246911   -0.84333078737546    1.09566211936899
