39
 energy: -52.269555742624 gnorm: 0.114601738021 xtb: 6.4.1 (79825abcba525fcdf90b791dcacef51065a7a4e7)
C         3.34563019026970    1.57647955332091    3.61439725024900
C         3.51007659212423    2.08723790228026    2.17697774421826
N         4.69512616993425    1.55938036728355    1.52344757281094
C         4.71417006420532    1.26439557091724    0.18534297964418
N         5.85983959803046    1.22916556762754   -0.42821754695693
C         5.58865125348777    0.99172070298808   -1.84485877111724
C         4.14196842642765    0.51978410080791   -1.88055428420225
C         3.44724748198967    1.17828525402713   -0.68784853867638
C         2.86699786298098    2.56978246556384   -1.07588441350415
N         2.55439092060911    3.62460776344933   -0.08977987111547
C         3.63314508963950    4.21211004091259    0.69736717800301
C         3.62017936564806    3.63922597372611    2.14326136829405
N         4.81095970793058    4.15771397546611    2.85831207424886
N         2.49722652406630    0.30427531344720    0.01358122815231
C         1.44422064561398   -0.42074958749829   -0.47552619513576
C         0.60170593460508    0.10658030882540   -1.61004131637887
N         1.01970272221063   -1.45908906065789    0.16352986453331
H         2.85784577235886    2.33333584055771    4.23445609405191
H         4.33887594452840    1.42373817477960    4.04654718026352
H         2.81938786503948    0.62115695810842    3.70520309121402
H         2.62333347608966    1.92713950147211    1.55892244507490
H         5.65075799585687    1.71480642368622    1.83904274733324
H         6.39583386244569    0.37916419894232   -2.26443829733613
H         5.69507226886004    1.91779228486701   -2.41416139641862
H         4.03137620034430   -0.56422295047555   -1.75704180479230
H         3.75319121738239    0.66492990003682   -2.89653712983214
H         1.89124642896198    2.46780756590745   -1.56407198311461
H         3.65941560065941    2.97880573509856   -1.71546300018257
H         1.79765736515435    3.36367107330460    0.54024432778958
H         3.42435487542512    5.28185541615958    0.83411928620081
H         4.53712148977566    4.03484564293391    0.10083976696405
H         2.71099878005970    3.95183446594666    2.67468105213796
H         5.59796529257848    3.56031441399058    2.59352227195638
H         4.71792998803613    3.96717995255297    3.85401663004413
H         2.88112654279603   -0.20561753474049    0.80283762945314
H         1.21549417379067    0.07395523732157   -2.50634429316342
H         0.41071002080023    1.12089235647374   -1.24781998221388
H        -0.30779080197859   -0.47533208127823   -1.79060188270610
H         1.57196370868454   -1.72975291511319    0.97886645962617
