39
 energy: -52.262815656153 gnorm: 0.111834732327 xtb: 6.4.1 (79825abcba525fcdf90b791dcacef51065a7a4e7)
C         4.04601848188930    1.36720147796593    3.66866607251868
C         3.81932986169629    2.03569235555887    2.30637984959499
N         4.91922055036493    1.61103173106803    1.45786257817475
C         4.83250203392399    1.19981114112696    0.15353129160688
N         5.91106334303743    1.03767642607857   -0.55405205417568
C         5.62966644625052    0.60110276591444   -1.92043953999641
C         4.12075589593081    0.40372306114176   -1.95390203346576
C         3.55583695776600    1.07321529015111   -0.70032526335453
C         3.19498207634093    2.53310384573454   -1.10286118367922
N         2.35000393036872    3.22478550454309   -0.10768776623558
C         3.02368995571696    4.04673558395456    0.89181969651702
C         3.45433677942955    3.54852929142223    2.30082929971657
N         4.55178725019926    4.41642335115569    2.79118375931456
N         2.46598783138445    0.31957951761172   -0.06573964078191
C         1.20034902479787   -0.05243051972007   -0.43108261376951
C         0.61837507957768    0.46259361630159   -1.72378864365477
N         0.47309820513923   -0.76966739419853    0.35849605847002
H         3.22943324215638    1.67061510135354    4.32924670170002
H         4.90061395904866    1.84794085460686    4.15361641945124
H         4.01740071052683    0.27706645613802    3.57590506575169
H         2.82350493296262    1.65847973695639    2.06147058778063
H         5.84600064065001    1.82902100060315    1.81917835249973
H         6.19763154882175   -0.31491905319870   -2.12325937633091
H         5.84518349460958    1.34306832647829   -2.69250106352492
H         3.84927737657918   -0.65500219236375   -1.86469711837910
H         3.68269776829455    0.84567497156270   -2.85790411488490
H         2.63916112597223    2.53703713322958   -2.04724694103253
H         4.08881431795264    3.13139811387181   -1.32056411522316
H         1.66111479770574    2.56720124460475    0.25380750385564
H         2.35538413271359    4.91850260591244    0.88555520094653
H         3.99705389401023    4.40202338687227    0.53019257622801
H         2.55985989091153    3.74866746142979    2.90630108784039
H         5.43518047229551    4.32327176587112    2.28391966636271
H         4.76950424026643    4.01210246545188    3.69975914892019
H         2.86805800671718   -0.08957688439754    0.77165287253513
H         1.31887462505240    0.19113262542703   -2.50913489887893
H         0.57980641450080    1.55574565016932   -1.71717451561303
H        -0.40521635788426    0.12404280705126   -1.91366328497658
H         0.94999777417146   -1.08103723645996    1.20622272766884
