39
 energy: -52.261179391114 gnorm: 0.132467126421 xtb: 6.4.1 (79825abcba525fcdf90b791dcacef51065a7a4e7)
C         3.94379199171078    1.50619387629183    3.66939707114435
C         3.65722750614692    1.99915878936908    2.24498212122119
N         4.80789427566618    1.51816805971219    1.50020586866602
C         4.82037230299011    1.12211870775259    0.18837820122707
N         5.96535103618648    1.06604816097359   -0.42492120980872
C         5.68298052448029    0.81776061388003   -1.83751306034395
C         4.21440312785651    0.43889401087539   -1.96647068258684
C         3.57945166905585    1.06415267268252   -0.72361259080557
C         3.11139646002723    2.51977926704610   -1.01619003585837
N         2.28871897933561    3.18389339795527    0.01576727640121
C         2.73341498152050    4.15425895597185    1.01030541661816
C         3.44771559017928    3.54124154765443    2.24843245595863
N         4.80590281804809    4.12349244477666    2.36841782474117
N         2.49399923152828    0.34727298945242   -0.04074109776224
C         1.29401014629212   -0.15395062229729   -0.46795259531955
C         0.66579970676172    0.69552418598960   -1.54441747224894
N         0.61267876251023   -1.08615653376446    0.10957373575771
H         3.07190547853146    1.82774083703796    4.24529594402821
H         4.83572118225540    1.94563945978535    4.12543491877845
H         4.07034826876522    0.42124466290617    3.60093784217292
H         2.69368772476466    1.61498023668129    1.90156527618387
H         5.72006483064497    1.66274295690603    1.92919623721267
H         6.43151530738652    0.10585379812566   -2.20588866250193
H         5.89077647864786    1.74512222745312   -2.37590025263742
H         3.98780145110734   -0.63102604690772   -1.88597211767567
H         3.70210976764043    0.85821845567337   -2.84177560544600
H         2.58909199702105    2.49153929952181   -1.97911132722112
H         4.00695400285070    3.15277071103922   -1.05600462200839
H         1.63510397730541    2.60876887067340    0.54461823224691
H         1.82919965282413    4.66022525353865    1.37505520037634
H         3.45699809870811    4.77374986144510    0.46523712350185
H         2.83646144888224    3.80043515068078    3.12360520149879
H         5.38668089232939    3.81581918101897    1.58457367197813
H         5.34114188971341    4.17468061904713    3.23287384363383
H         2.92229950742299   -0.29893151070420    0.61444913644210
H         1.38993947441390    0.67981706711540   -2.35468552136380
H         0.44858915403768    1.71888452861974   -1.22494001666599
H        -0.28111789217715    0.25052151309848   -1.86648602085719
H         1.21847440656215   -1.58916847710007    0.75997015996931
