39
 energy: -52.268305473097 gnorm: 0.121420058630 xtb: 6.4.1 (79825abcba525fcdf90b791dcacef51065a7a4e7)
C         3.53514289292497    1.46664916570809    3.66096278869127
C         3.53332212632186    2.07511545605413    2.25246819803843
N         4.66291636162320    1.49606200720292    1.54621630258396
C         4.64356502420744    1.24872759574069    0.19849458377032
N         5.78885958640248    1.03852647732139   -0.37975469429799
C         5.58133721297315    0.58304627769349   -1.75316934173728
C         4.07816046235502    0.40847005623768   -1.91709715464056
C         3.42161058348507    1.11656431452194   -0.73119971421603
C         3.04489920568237    2.52132351420642   -1.28641688394205
N         2.75203149542981    3.59175343445313   -0.31112719380418
C         3.72985653762251    4.11491607392033    0.63683324613763
C         3.59267049376454    3.62332585735246    2.10601441871576
N         4.85210107383027    4.06558397261127    2.75124888606132
N         2.48378200784887    0.36063973874225    0.10992602678645
C         1.26970062421744   -0.15338298315120   -0.25817122567876
C         0.64355294450702    0.30287457135955   -1.55231207655329
N         0.56341974930528   -0.95993294802096    0.46113499993219
H         2.64062929163458    1.73121718672259    4.23112699986058
H         4.36880227774577    1.76042626924630    4.30542198969040
H         3.65717851879673    0.39136476882117    3.49759595018170
H         2.59808886476951    1.78874259486639    1.76536806682086
H         5.56211204214470    1.58446844244753    2.01591960169493
H         6.19315206730012   -0.31189500412768   -1.91923830983565
H         5.79604308021101    1.34866549337157   -2.50201384860933
H         3.72109225532284   -0.62096042116350   -2.04092139846606
H         3.76068425475456    0.84685880723449   -2.87180147317401
H         2.24847084061359    2.47644508179550   -2.03775211597362
H         3.94600195439952    2.85666223158992   -1.81542393068844
H         1.86003392315080    3.49644182067966    0.17149082012893
H         3.56212050638660    5.19516336675735    0.74444398116809
H         4.71380918596569    4.02076424070339    0.15995425971312
H         2.69640378871418    4.08651854232617    2.54063932956571
H         4.74463760519573    4.25482760995317    3.75075682153864
H         5.36099760112165    4.83018037483926    2.31215667504120
H         2.88565322029398   -0.08269111861078    0.92983631446806
H        -0.30240872097081   -0.17282093982773   -1.79732172405996
H         1.37263578374828   -0.03897205390761   -2.29264427179965
H         0.45433037592098    1.38102610922282   -1.56618804213205
H         1.12352851446000   -1.37966832532080    1.20485891875362
