39
 energy: -52.268619163154 gnorm: 0.107316982201 xtb: 6.4.1 (79825abcba525fcdf90b791dcacef51065a7a4e7)
C         3.62486413390900    1.39667499667423    3.65709756775066
C         3.67116369065627    2.09495679778298    2.29168538518930
N         4.76802675508657    1.63259737207289    1.45910329244911
C         4.73095433181926    1.33864788135476    0.12114890465545
N         5.82390864268747    1.11390640741653   -0.54608307311755
C         5.46914469049569    0.78708712784609   -1.92598424351200
C         3.96273505866823    0.58402857324729   -2.00590158919018
C         3.43279097509781    1.14972009168115   -0.68758434418065
C         2.90330612581424    2.59491867933688   -0.92119269314792
N         2.41822933806152    3.32454353280601    0.26839959231510
C         3.40085990337175    4.18048869855886    0.92434549306537
C         3.74352164805489    3.64860836440499    2.34514123014590
N         5.06018516972368    4.15314747970069    2.80331433961845
N         2.50413431009229    0.23757354504398   -0.00639243110450
C         1.32778302950504   -0.25362224984273   -0.50502348974197
C         0.91353993730742   -0.20655226645558   -1.95458187220851
N         0.47950462899154   -0.82082775452373    0.28583595007888
H         2.87345276384239    1.90405757633249    4.26798374429973
H         4.54005332551121    1.69923345667473    4.17430907521363
H         3.54612943841294    0.32143638013139    3.46873431457414
H         2.67568688184504    1.90012929410546    1.88547685546622
H         5.70963882109452    1.66661201938730    1.84536677477817
H         6.10131915893208   -0.01621445297052   -2.32332317857858
H         5.75811288715666    1.60447097726500   -2.59037909051274
H         3.76499922382165   -0.49440674560914   -1.98504325079251
H         3.45397407022817    1.02640050650790   -2.87187243682201
H         2.07341155461297    2.61191093235074   -1.63659686157692
H         3.78260219914269    3.16919970421342   -1.23951078244892
H         1.57446708904154    3.84692432033941    0.03851329237764
H         3.05739690373773    5.22279301053956    0.97214249002983
H         4.40092249663982    4.15343862274849    0.47314258849987
H         2.99587776900533    4.03305700395668    3.05222549756066
H         5.73736200863894    4.12343060793169    2.03720331520459
H         5.31346846935645    3.72027914686356    3.68923639133532
H         2.38512577149241    0.36178612032864    0.99395941698469
H         1.57619848940014   -0.83192108410555   -2.54699803412767
H         0.95770857313854    0.75676084703001   -2.47090505797648
H        -0.10336451869323   -0.61050344595229   -1.98830486639553
H         0.64063815708421   -0.91726837544347    1.28970848884576
