39
 energy: -52.267600470559 gnorm: 0.111660939919 xtb: 6.4.1 (79825abcba525fcdf90b791dcacef51065a7a4e7)
C         3.73751018552515    1.75788886279911    3.89347007125049
C         3.61468654653013    2.08615341093507    2.39973371621585
N         4.56519571908540    1.25614853947562    1.68021860209745
C         4.77475753835014    1.15489932630267    0.32976124546178
N         5.94864631819424    1.10992523810112   -0.22721167705915
C         5.79085793863710    0.83719905598040   -1.65462850581891
C         4.30727361273787    0.57276348863848   -1.86896682991533
C         3.57419730733940    1.10061229986117   -0.63495599082510
C         3.04282718951464    2.54538160415541   -0.86693331017404
N         2.09986461336023    3.09284637003621    0.13000481702966
C         2.71660501086694    4.03708067669064    1.05549000252944
C         3.78431246810513    3.60384712402115    2.10013527710291
N         5.15594563789247    4.00677070665913    1.70724830649651
N         2.52373986081458    0.22041886967183   -0.10558312466427
C         1.31592776404853   -0.13644056432683   -0.64181988415457
C         0.61627574477774    0.76185710625789   -1.63105230178785
N         0.67961983771603   -1.18131944818686   -0.22939131806691
H         2.93172414886817    2.36997735322077    4.30734758392155
H         4.69554352113949    2.12600821479746    4.27199469584234
H         3.51940082066343    0.70066058925192    4.07378821870806
H         2.63810402136886    1.65892350112705    2.15952884050344
H         5.52108271151973    1.45666591040795    1.96842447044347
H         6.26766226568099   -0.13624730189566   -1.82158971656147
H         6.12476914050564    1.66896780797104   -2.27889090276837
H         4.08062322648595   -0.49769212671389   -1.94184786651378
H         3.90089590211548    0.97225901198279   -2.80688828881445
H         2.53344379729429    2.61768752204452   -1.83446484691457
H         3.91236218037674    3.21471284099407   -0.85310306789647
H         1.59627195432639    2.34539809244450    0.60474646738120
H         1.91615808467672    4.54094625281507    1.61410781649181
H         3.14746788747610    4.86825265398358    0.48281969504736
H         3.53578958006172    4.08779770172738    3.05447719642084
H         5.58378821421359    3.52856258520940    0.91060197038238
H         5.84694597355392    4.05165338254705    2.45349852189960
H         2.84961554745653   -0.60028230089106    0.39496681985555
H         1.02442414981868    0.70085564502222   -2.63646421890088
H         0.64126688315355    1.81745330850914   -1.34538683414384
H        -0.45534882239869    0.54488505980108   -1.57671644443620
H         1.00278788507413   -1.82896718038006    0.49112218420587
