39
 energy: -52.265114525135 gnorm: 0.116700294708 xtb: 6.4.1 (79825abcba525fcdf90b791dcacef51065a7a4e7)
C         3.79268618482794    1.68329545178139    3.84348699408449
C         3.68069172622564    2.16144944073908    2.38989917941001
N         4.73583238600243    1.64469556728676    1.53566188822861
C         4.67101453758760    1.18692197723437    0.24564461687579
N         5.76771442482883    0.83455774181226   -0.35713656043528
C         5.48709770784092    0.57407647370810   -1.76788079778700
C         3.97745212934749    0.39919410388702   -1.85317977739544
C         3.39088607634514    1.05468984670137   -0.60215077218373
C         3.05359670969703    2.49046563053679   -1.10045769223871
N         2.54315641167784    3.44071909720466   -0.09087819475736
C         3.54677305586001    4.04922590304302    0.77569151787760
C         3.63909995051648    3.71404137985880    2.29164051234327
N         4.84873662395773    4.40712356677970    2.79612176689379
N         2.30683434620687    0.34107823318449    0.08634559220827
C         1.23932812691500   -0.18963967973422   -0.58631892458742
C         0.66303759987798    0.44008511764851   -1.82984951937865
N         0.58882747205278   -1.15888444761784   -0.03480240888301
H         2.84348995551916    1.69732732475964    4.38576705796974
H         4.56173142872924    2.19213894570103    4.43193267928339
H         4.07143679461331    0.63063430743516    3.73384866575042
H         2.74266738904640    1.86503560366415    1.91430862672775
H         5.68832554658596    1.67023278046439    1.89495894480900
H         6.05472146694013   -0.29496347003496   -2.12198397485440
H         5.96311804279924    1.36559013867844   -2.35093331973941
H         3.77890996707387   -0.67727143271076   -1.91921171791538
H         3.67576943944683    0.86370872978275   -2.80062365076680
H         2.28434206562287    2.42215182978364   -1.87788767298663
H         3.88985171490930    2.95818338299367   -1.63543838450438
H         1.78700131129399    2.96660005805803    0.40014596771291
H         3.29241882167565    5.10427075486525    0.60588590426438
H         4.55146808782022    3.77065812474221    0.43301259976410
H         2.73569882076607    3.98137471284796    2.85656490493187
H         5.25152223142183    4.94404323092517    2.02420292855888
H         5.51822719509443    3.72120436692192    3.13917064105570
H         2.70132980311303   -0.28844690148570    0.77798643719166
H        -0.12501021820488   -0.18390814246465   -2.24309578100626
H         1.33325941946199    0.40942962097910   -2.69377984731207
H         0.22420375320715    1.37983336062593   -1.47955455136550
H         1.02834800645473   -1.53243715640277    0.80799350922114
