39
 energy: -52.265930254773 gnorm: 0.114341955998 xtb: 6.4.1 (79825abcba525fcdf90b791dcacef51065a7a4e7)
C         3.94831186089230    1.50923563727291    3.65620713866495
C         3.67090767499080    2.11471596003029    2.27398717066340
N         4.81039936490474    1.80620522920329    1.42754900833261
C         4.75447122555180    1.21964202013568    0.19032702647960
N         5.84772586649264    0.84689519553425   -0.40642287904116
C         5.51963299265315    0.43879803338956   -1.77119660066538
C         4.00896751894896    0.36967264304308   -1.94440469159177
C         3.49760999873989    1.08035009916374   -0.69050716222148
C         3.21737581968217    2.56120876856462   -1.08044613389988
N         2.44054111845320    3.25981774809115   -0.03581459727324
C         3.03720577867122    4.17437203641676    0.93168304839023
C         3.46529586444782    3.65615036880643    2.33423766353760
N         4.72547643891874    4.37611868023119    2.63701760109930
N         2.48569662252257    0.24285059355078   -0.03243207329729
C         1.27211865755106   -0.15453072202294   -0.52540790625610
C         0.60374073339650    0.66901338792755   -1.59782501790212
N         0.68878132565546   -1.16530045162220    0.02669632667346
H         3.54699131309203    2.11093118248542    4.47605001030149
H         5.02441858208466    1.51874585395967    3.85248372657263
H         3.81320768461112    0.42449727230305    3.71012826442548
H         2.77320810843668    1.63660666609617    1.87463245716806
H         5.76853231350716    2.02000802029748    1.69821368898291
H         6.13159178893711   -0.44230198697423   -1.99919967707313
H         5.95412149140813    1.18997781486308   -2.43451264017609
H         3.70433891778791   -0.68185541530630   -2.00802398349927
H         3.64599631391299    0.83634104395319   -2.86901741241217
H         2.59457462732415    2.67929509869133   -1.97430917910108
H         4.17996903287269    3.04209849051580   -1.29595959839464
H         1.68114123510328    2.68167018686764    0.32016480896496
H         2.28001707137220    4.96616459211505    1.01155463818327
H         3.94441093723212    4.64307296018362    0.52951493089070
H         2.69871524707794    3.88335341730400    3.08754584148875
H         5.38743445146621    3.74860243420431    2.17397050012186
H         4.88873175088699    4.38271213553672    3.64185068874575
H         3.00296280119966   -0.40048535807763    0.55820331881089
H        -0.22020426043274    0.10162703753183   -2.02249759320071
H         1.34892537458129    0.80443395387199   -2.38704854803765
H         0.22708748105403    1.64764207887032   -1.28345792095775
H         1.18846323394167   -1.55271707862343    0.82872577118781
