39
 energy: -52.263264863448 gnorm: 0.111785619926 xtb: 6.4.1 (79825abcba525fcdf90b791dcacef51065a7a4e7)
C         3.79086722688387    1.83070228698395    3.88213034278158
C         3.54121089144502    2.07308388568317    2.38780292649537
N         4.47400325952589    1.21011069849344    1.68406047849602
C         4.70191817434966    1.16078780993109    0.33368103507767
N         5.87454639839234    1.00437332005246   -0.20551642732151
C         5.67273795747033    0.89963192042455   -1.64950331446016
C         4.21061612210901    0.52486702123319   -1.84607528488055
C         3.51197302050992    1.16483388424113   -0.64559697151415
C         3.03816596347743    2.63033652405164   -0.87216888821522
N         2.13380177700772    3.26632514695319    0.10784415418383
C         2.71490157971827    4.18761797682844    1.07841743483947
C         3.77924280444113    3.56848824652190    2.02859131240321
N         5.15787229979927    3.80793381088321    1.53855899244997
N         2.55835925696259    0.21142198953514   -0.06244737022300
C         1.34460733981829   -0.18131879986594   -0.55870284402127
C         0.77276756581436    0.68355635431069   -1.65415829742094
N         0.64305812787117   -1.19168342087252   -0.16659445352545
H         3.13573851621154    2.53599370937165    4.40040481872892
H         4.84083985659056    2.05219041406317    4.09454763598325
H         3.54762172716893    0.84307398899508    4.28615994498201
H         2.54470146209791    1.80256230735897    2.03041765408483
H         5.38304354720034    1.27649628799124    2.13818433316759
H         6.33524028223436    0.14062090887922   -2.08287286754296
H         5.92156022049799    1.84977026289249   -2.12737787663020
H         4.01609958567195   -0.55351358099216   -1.88868805523103
H         3.95872788382739    1.03372168917079   -2.78525333791754
H         2.61431766596629    2.78612375312841   -1.87061758182605
H         3.99935813894811    3.15966760726263   -0.85785533800298
H         1.53455590643223    2.66300158415251    0.66870882624762
H         1.88288288150570    4.70864481466727    1.57129223982855
H         3.40766101721453    4.87644820430791    0.57837920562943
H         3.64018344769087    3.96633055687839    3.04304893893858
H         5.43391664653457    2.97192223441723    1.01773097105199
H         5.75832401978522    3.81740302757680    2.36060118781158
H         2.99337148887321   -0.47959746082026    0.54050542950655
H         0.69748527998365    1.72719620174551   -1.36037629687426
H        -0.26437346193873    0.39330328587380   -1.84548080445916
H         1.34261219938677    0.41474179673102   -2.54938133784881
H         1.14012358734007   -1.75484177829943    0.52536181202544
