39
 energy: -52.267758518861 gnorm: 0.103511785117 xtb: 6.4.1 (79825abcba525fcdf90b791dcacef51065a7a4e7)
C         3.97277544104355    2.00005367923770    3.90658847054691
C         3.57371428742825    2.15424176262605    2.43313410098337
N         4.46180208209243    1.27546958971366    1.69209612797005
C         4.72801726342036    1.08234563104104    0.36178217644797
N         5.90482220073135    0.74038416803656   -0.07232477982266
C         5.75900547650758    0.42045611565946   -1.49119019512308
C         4.32773618528591    0.67077228340026   -1.94473133733533
C         3.59236837067165    1.11481204311014   -0.67947609079043
C         3.10280073451983    2.59039348674999   -0.76015391988281
N         2.09853899482458    3.12793150165149    0.18074614818225
C         2.62330072371486    4.15752552329248    1.07126916605135
C         3.69896603309870    3.66491521928429    2.08085001960672
N         5.02160450606373    4.05497240139261    1.53626944750361
N         2.61379828756525    0.07781743201139   -0.32524497814385
C         1.29312504364371   -0.07946808834631   -0.64896087825589
C         0.63415445180899    0.64693373303421   -1.79487996631435
N         0.49661893460542   -0.91075976927205   -0.06476132120144
H         3.28494070638061    2.58126513842671    4.52651964914590
H         4.93798493572120    2.46619221996234    4.12500575757845
H         4.00084827367968    0.96166181136715    4.25122188859755
H         2.52830104364691    1.85846407189567    2.31666993114478
H         5.29265318619448    0.85897042875248    2.10827476204781
H         6.05605576282271   -0.62659286307635   -1.62634115972447
H         6.47533591022169    1.09509189510174   -1.96529647460068
H         3.88214929262077   -0.21806610032783   -2.40730663726797
H         4.34521772483103    1.45164711565689   -2.71568209337804
H         2.64368262795242    2.79939351009962   -1.73295729424663
H         3.96770096810179    3.26416197338709   -0.80780137453618
H         1.72540036679649    2.34976273000583    0.72193470466275
H         1.83525050888823    4.75018523921642    1.55539825611305
H         3.19867907704645    4.83961002578080    0.43240968354873
H         3.50209832239565    4.24130784428496    2.99504634925835
H         5.29614292247927    3.44124730970464    0.76532986907615
H         5.78023731198052    3.88303977606631    2.19300435684021
H         3.07049669381546   -0.62701097399641    0.24478930774851
H         1.23740206869429    0.52453309942532   -2.69057512562217
H         0.46256859681748    1.68158779233768   -1.48413581667605
H        -0.33508392713838    0.18966552048775   -2.01824336639018
H         0.85046034546385   -1.37648387147672    0.77244964059622
