39
 energy: -52.270579308917 gnorm: 0.097672678630 xtb: 6.4.1 (79825abcba525fcdf90b791dcacef51065a7a4e7)
C         4.12155407476774    1.83797195338579    3.94405612062171
C         3.79934574673563    2.19901474503185    2.48806111830690
N         4.72446948278420    1.46259514498160    1.64431352731465
C         4.68493119831311    1.11274230992388    0.31994864876162
N         5.73056067081482    0.52385035730226   -0.18017298194144
C         5.47392193873402    0.16775863896941   -1.57449389068138
C         4.07934097414522    0.67998174984896   -1.90564485288700
C         3.47591644998530    1.25766585640741   -0.62464215180562
C         2.94363224465854    2.70466563503274   -0.84002825082822
N         2.10347580669977    3.28442416857397    0.22805363251373
C         2.69254670112941    4.12629313407279    1.26377660888803
C         3.84836167214004    3.73244615678812    2.22707852038708
N         5.13066734382964    4.34377194964610    1.80274602033468
N         2.45788926656974    0.30832600946136   -0.15473633672263
C         1.32971680990511   -0.11830567241358   -0.80197732972052
C         0.98851365273120    0.11664326086956   -2.25229172337774
N         0.41345220030075   -0.79647751725269   -0.19592526416518
H         3.25145539030763    2.05504690644723    4.56939186479637
H         4.96564512939590    2.42696117535915    4.31449182077357
H         4.42482392937664    0.78858748617857    4.01215593762902
H         2.75684591975060    1.88345810854058    2.40113978208532
H         5.68953793519252    1.34309355618322    1.94655848782868
H         5.64873832689968   -0.88934888429143   -1.80854331668212
H         6.26660658927368    0.67057767166319   -2.13294134304845
H         3.49432290371717   -0.13124063084894   -2.35534405612025
H         4.10153668551938    1.50137988649324   -2.63313962312978
H         2.31888769715046    2.63790155123338   -1.73783316938272
H         3.79400395881241    3.35973922125019   -1.06813615789055
H         1.45547729901883    2.62425003515953    0.65458871009208
H         1.83974714656713    4.34672711845197    1.92012365080626
H         3.01308376407812    5.06637856634040    0.79694010208232
H         3.62883414524357    4.20403733959427    3.19462681529818
H         5.65138045258468    3.72766240117356    1.17374320217814
H         5.65183567093556    4.58288336908543    2.64393244867216
H         2.55383717062164    0.01023801007155    0.81078588473653
H         1.49645490831354   -0.69870460960833   -2.76058589203125
H         1.41087598786985    1.01803712473630   -2.70573611745282
H        -0.10084610688801    0.01943736840333   -2.29977644824341
H         0.45803893878475   -1.00116795089024    0.80364400929125
