39
 energy: -52.267420277090 gnorm: 0.114839846404 xtb: 6.4.1 (79825abcba525fcdf90b791dcacef51065a7a4e7)
C         3.59869109881727    1.51020895577746    3.75285503859116
C         3.63348268235320    2.03206715467693    2.31044556089311
N         4.70665031921634    1.48791547038053    1.49663482582766
C         4.77208020141235    1.29574742299682    0.14138836352237
N         5.90150939104458    1.06770993325269   -0.46081174715056
C         5.66251514114952    0.74939056627733   -1.86735007631006
C         4.16773888292904    0.48654418388776   -1.98330372920121
C         3.53715639535141    1.17629424249973   -0.77275899776225
C         2.97956570144343    2.57900417281835   -1.15357846342091
N         2.43873963327581    3.50883473346949   -0.14080800910631
C         3.37396159955853    4.13139574539902    0.78991623627273
C         3.62220037549026    3.58593966909104    2.22512682769063
N         4.86420643915758    4.12997886739548    2.82473288509720
N         2.51692866301120    0.41671535800984   -0.03749562439331
C         1.26725960977079   -0.03759726033239   -0.36251234103952
C         0.50505694832563    0.18857614463367   -1.64427874639884
N         0.66662462062935   -0.94272205273827    0.33515785439825
H         3.03500455120190    2.25103153967703    4.32615899210122
H         4.55822940113496    1.51586749075260    4.27809292861127
H         3.11571608181477    0.54743491586210    3.94681179774159
H         2.69387849094361    1.63258187100121    1.92122496745306
H         5.65522852692093    1.50792797602650    1.86648430930156
H         6.35387327396366   -0.04296088003062   -2.17882934172901
H         6.00388500120142    1.65101284750723   -2.38075378653402
H         3.91186450634738   -0.57965744143783   -1.96599305819965
H         3.91550794767213    0.84313184541321   -2.99011104253148
H         2.11685804101383    2.49606986334472   -1.82415601415593
H         3.76822951799617    3.13557550222501   -1.67561717096348
H         1.75780864601258    2.95654944498832    0.37782295632733
H         3.09948982297282    5.18083670029616    0.96308835559927
H         4.35464627049323    4.00742862009532    0.31312416149927
H         2.72946024283173    3.87561569405663    2.79595354336263
H         5.43417551821596    4.36583529468039    2.00871532370645
H         5.32888679416848    3.34790471841171    3.28169841753989
H         2.88740611429454   -0.23525964591477    0.64658819359889
H        -0.39607957002679   -0.41724070532276   -1.59847104263626
H         1.13053801733640   -0.05615182335608   -2.50764096036403
H         0.29242180708715    1.26084687493130   -1.70284703928030
H         1.10876686435467   -1.23791123330802    1.20716614954272
