39
 energy: -52.267824449218 gnorm: 0.106870055809 xtb: 6.4.1 (79825abcba525fcdf90b791dcacef51065a7a4e7)
C         3.66989736526948    1.34807869534310    3.45753378294566
C         3.60793387741371    2.08321637621853    2.11223653928038
N         4.81486541618225    1.75572768322479    1.37322017393000
C         4.86218618073953    1.19753815040170    0.12258520893169
N         5.96096106123453    0.90391001250676   -0.50728196023948
C         5.68976513637409    0.67416407924236   -1.92519067459297
C         4.19299536015403    0.40449764907684   -1.98723739048710
C         3.59833797548653    1.08154938563369   -0.75160333266489
C         3.08598960467125    2.51153422450050   -1.09243836013657
N         2.46821267853358    3.38190928354808   -0.07088041718334
C         3.24679269260480    4.20560067440782    0.84771395516778
C         3.45778316466428    3.62368353334563    2.27453901211377
N         4.51002305539675    4.37453783588339    3.00055152620149
N         2.60514892452913    0.21614249824668   -0.10115474503212
C         1.30124213074453   -0.13453269651196   -0.32601589820551
C         0.57506648202836    0.37469710780703   -1.54601030617474
N         0.63626235873242   -0.88834801052289    0.48412072525757
H         2.86643025543053    0.67190395628502    3.76161662112801
H         3.78534704102578    2.07340878670624    4.26820526571608
H         4.67277736609771    0.92052678856559    3.55370562441240
H         2.68062316139217    1.77925770090179    1.62066643572411
H         5.75922102370416    1.77711099218669    1.75364757290319
H         6.22871927242355   -0.19140482672895   -2.32909057384967
H         6.07076045024508    1.51765291118287   -2.50519813078511
H         3.96214214686318   -0.66639896127845   -2.03667935865109
H         3.85400117206783    0.75167205115661   -2.97160980582026
H         2.32022850974706    2.37633934806222   -1.86454531808996
H         3.89754757889847    3.11147698583307   -1.52340125235131
H         1.74108403505133    2.91537130962848    0.46883282200793
H         2.75926895128445    5.18380612502493    0.95764284290387
H         4.27721382956147    4.25352902112901    0.47304595547208
H         2.47955441681397    3.76804578910023    2.75304538018713
H         5.41811101795802    4.43987548717066    2.53419875470688
H         4.63821027145590    3.92720035930825    3.90600308475331
H         2.97850931700902   -0.26543118971727    0.71062380652631
H         0.46096989675263    1.45159369654731   -1.45416733642644
H        -0.44769200019763   -0.00993362400845   -1.59637839353501
H         1.11518119806498    0.15218277637767   -2.47184610666229
H         1.17960700923216   -1.21199634950176    1.28602672150596
