39
 energy: -52.266905652414 gnorm: 0.113014987479 xtb: 6.4.1 (79825abcba525fcdf90b791dcacef51065a7a4e7)
C         3.63242445213164    1.43354382825393    3.70029872136396
C         3.73018153917353    1.98059495635883    2.27016930142106
N         4.82891590931708    1.54353691186532    1.42646270970961
C         4.71566295594700    1.39856054161655    0.06850165370449
N         5.82017560106484    1.32339906506272   -0.61315730298775
C         5.49570798632742    0.65998490420213   -1.87466353122213
C         3.98309937581608    0.54474936584300   -1.99966552269166
C         3.41888182487299    1.20663771388727   -0.74174249547409
C         2.95064881536150    2.66090601656066   -1.04072002864223
N         2.54378568085210    3.55964110303259    0.05906147067226
C         3.59139731314485    4.18675825849064    0.85762512817476
C         3.71764926063424    3.53678971652166    2.26495437860808
N         4.87867577033640    4.21094773683128    2.89393255851005
N         2.36398205961354    0.45463068536911   -0.04884363770086
C         1.25776639373900   -0.24794784372606   -0.44429129994486
C         0.67962870271963    0.04005971962414   -1.80731766191441
N         0.60025719812393   -1.08643668474920    0.28466348798536
H         3.88988013388341    2.15756735501266    4.47795195427277
H         4.32904059842175    0.61080022890958    3.88587762840049
H         2.60984639429935    1.10008818979718    3.90268301222837
H         2.87390848259318    1.66254236871252    1.67052256148788
H         5.77097649135300    1.77650470732571    1.73506864992885
H         6.00412022993686   -0.30156248285200   -1.73409385447083
H         5.99791842478746    1.26183490786645   -2.63532162581352
H         3.66523285200987   -0.50468848027659   -2.01374902503024
H         3.65853518329882    1.03256540529748   -2.92763630502245
H         2.09953864695548    2.62819081573745   -1.73018217889073
H         3.74188699768008    3.21616067183587   -1.56025932845641
H         1.83807526057002    3.12519391878606    0.65142333174191
H         3.30231132678721    5.24317027633174    0.94172389865745
H         4.42194673938150    4.04491163073119    0.15441240025516
H         2.84030249219733    3.77735634569718    2.88069022488589
H         5.68837280527782    3.66502184447907    2.58941113459566
H         4.84261214922664    4.16821629244424    3.91042591483085
H         2.76019958326584    0.09384147168295    0.81321113536474
H         0.66507702374345    1.10111573454641   -2.04206816696796
H        -0.28586992526950   -0.46627595359581   -1.89647618241091
H         1.26973810338291   -0.42444289200632   -2.60382044415614
H         0.91811537499121   -1.25111246565419    1.24115339553595
