39
 energy: -52.261816740176 gnorm: 0.104125869299 xtb: 6.4.1 (79825abcba525fcdf90b791dcacef51065a7a4e7)
C         3.79992702962790    1.97865502851068    3.98041449968388
C         3.68224576234088    2.09043329302300    2.45471849966024
N         4.63898439828535    1.23205206886850    1.77802757728186
C         4.75369697404022    1.08414438404620    0.42050522476147
N         5.86426754798318    0.71106165307421   -0.14314238726778
C         5.66524217950589    0.50532387019947   -1.57661942148728
C         4.17349519252058    0.65981038192503   -1.83683929675296
C         3.56191570051439    1.21139710432521   -0.54822352590337
C         3.03059416044883    2.64871461234782   -0.82270810573419
N         2.14980320663798    3.29659369723818    0.17089225781312
C         2.73494180864521    4.20255685443087    1.15339596559210
C         3.82495025680141    3.59448045365798    2.08135013528942
N         5.07375241838365    4.00722106436684    1.39708155795987
N         2.53154387592943    0.25592594575586   -0.11945118956517
C         1.35284942368603   -0.11895991766185   -0.70583719352581
C         0.71332331590766    0.58968332127139   -1.87368287794796
N         0.62408468097823   -1.09325848035067   -0.27409509621759
H         2.93537702583361    2.40850482806524    4.49326973067738
H         4.72501554559766    2.47875581624605    4.28163046631868
H         3.78677821220772    0.92739195582427    4.28453784560164
H         2.62212454664377    1.88346869855936    2.28965529548636
H         5.43837708647264    0.97970526448780    2.35619898136188
H         6.08967405730564   -0.44612632724246   -1.91928007034842
H         6.23305139739665    1.27002623832284   -2.11128049996053
H         3.71257662178363   -0.31533685580082   -2.03482718808466
H         4.04372134290956    1.25558370848941   -2.74933536289165
H         2.34628908437042    2.73378495553183   -1.67435735994656
H         3.92478634931171    3.20857943254733   -1.12479813125666
H         1.50320625887505    2.62730152891608    0.58516813652386
H         1.91877025928222    4.54551122380658    1.80370047999940
H         3.22480868798863    5.06726165926861    0.68782428157801
H         3.78111977624080    4.20157813740235    2.99581805405086
H         5.51698209049681    3.27447194037304    0.83761409484124
H         5.84235439447424    4.22396438596916    2.02847575981635
H         3.00233433602417   -0.42542572601716    0.46741494743822
H         0.14664017190522   -0.24205983904528   -2.28384499321075
H         1.30503853160448    0.88282140361491   -2.74572405880877
H         0.05422888009242    1.36224606206585   -1.46484329614973
H         0.92479203838696   -1.73551676979372    0.46082275887918
