39
 energy: -52.262645534648 gnorm: 0.116782287825 xtb: 6.4.1 (79825abcba525fcdf90b791dcacef51065a7a4e7)
C         3.91450848707884    1.55368253795542    3.78487581689177
C         3.74670214987379    2.00123525787227    2.32692206482306
N         4.87153249691282    1.59056195266232    1.50461927351871
C         4.72829169875015    1.40727368925972    0.15414155032212
N         5.82389243245972    1.09548226503334   -0.47251744625704
C         5.54466896393055    0.59573645271646   -1.81753934819138
C         4.02900536672902    0.51645496216726   -1.93315871879904
C         3.46627224959819    1.25302544491549   -0.71676925238028
C         2.93862451541356    2.65331133213370   -1.14608650209899
N         2.35476955959061    3.41890515419470   -0.02547898581351
C         3.30480213804326    4.10193666765542    0.84594285364495
C         3.44195828002761    3.52676956612910    2.28446475898268
N         4.53160476065603    4.30780302519213    2.91750695575249
N         2.44476226640754    0.46901297965270   -0.00946540055724
C         1.37451382924054   -0.18630592408920   -0.55612249522135
C         0.73674056658311    0.10431581442824   -1.89171849908283
N         0.82761084951407   -1.14076817823841    0.11964071485269
H         4.90113009115274    1.12059986113721    3.96995756311220
H         3.26684184014472    0.67744944125339    3.88164407221635
H         3.66430981208859    2.35547542139677    4.48655006012888
H         2.82292925259187    1.49571654957808    2.03532016073919
H         5.74709060711230    2.04555154941195    1.75635767231985
H         6.04852799411289   -0.37656512856635   -1.87730497980977
H         5.92347028419771    1.35636255480387   -2.50383154594467
H         3.74177223338408   -0.53822081331510   -2.02098463841360
H         3.68851117595587    1.01477416587081   -2.84977088132956
H         2.22796691374188    2.47408893252408   -1.96074100556495
H         3.73946459570836    3.29922124502527   -1.52784850227665
H         1.80813342840854    2.78594944019040    0.55608797909489
H         2.86680631796575    5.08493556418318    1.06622107613746
H         4.27444055132826    4.31605045114573    0.37861257798938
H         2.41773382964115    3.60829624627494    2.67312651431729
H         5.32876564712468    4.30175548919587    2.27651115745008
H         4.81264713465467    4.09043914671043    3.87152657322268
H         2.77978456453633    0.09164831636264    0.87124543740691
H         0.40330055681233    1.13796373608902   -1.93107779322572
H         0.03038421860462   -0.68949698248326   -2.15140024730092
H         1.54121155907893   -0.03117674558294   -2.62170250996177
H         1.34325537438598   -1.35758545791249    0.97411474969505
