39
 energy: -52.271308088539 gnorm: 0.105197648649 xtb: 6.4.1 (79825abcba525fcdf90b791dcacef51065a7a4e7)
C         3.49518841509581    1.38895220067475    3.61278560139589
C         3.64046866977722    2.03672745556666    2.22953854414071
N         4.74370977382571    1.47135564542745    1.47237834715035
C         4.72726935418434    1.35974873062798    0.10666379237988
N         5.80557434155274    1.32917803640808   -0.61899464428607
C         5.34472562482908    0.97369445441801   -1.95990681008642
C         3.90033803810341    0.49353697718160   -1.96900888600888
C         3.41939435316081    1.17527170072254   -0.68731511234031
C         2.94560618180188    2.60276529331362   -1.08895278809461
N         2.64852219967087    3.71262743925909   -0.16012082128400
C         3.69157814473574    4.15185122093862    0.76052391332012
C         3.68107016942389    3.59234906063708    2.21166869997494
N         4.87827068473909    4.13856081090972    2.89463926591935
N         2.48803791332913    0.35054917860200    0.09425055187726
C         1.37281712603589   -0.32173842777031   -0.32767425251814
C         0.63945997010079    0.14614127523513   -1.55987078239417
N         0.87060006612109   -1.30249898617251    0.34511377546079
H         3.27286335915791    2.12094428737406    4.39380877873182
H         4.44999571100035    0.93883223048280    3.89976236010880
H         2.68589906498420    0.65910079548982    3.71370944886809
H         2.76325445606753    1.81918521895285    1.61544749997848
H         5.68785244133187    1.70339513592290    1.77526787815365
H         6.02321809063369    0.16565911888955   -2.25914433389980
H         5.48747231741846    1.82758428514514   -2.62589106772206
H         3.84834898435694   -0.59990140859616   -1.90384063803611
H         3.29815067202058    0.90111406354892   -2.79101100408934
H         2.09375163203881    2.41101801428962   -1.75106582032394
H         3.77625031901270    3.07877422699207   -1.62535981168604
H         1.73360915748719    3.52961747490572    0.24866470032350
H         3.70494972012131    5.24382334755452    0.87913139382899
H         4.67929646934808    3.88218457077092    0.36538676861922
H         2.71956735813978    3.80714081751906    2.69758755428448
H         5.67541040730050    3.57051055609763    2.59754527986382
H         4.82930209703463    4.04405448842911    3.90708972755009
H         2.94917769497276   -0.10197650041941    0.87710828315933
H         1.30070099770085    0.68159730846061   -2.23604129495004
H        -0.24023971426836    0.78127497032055   -1.42113971806766
H         0.23978025680517   -0.72268760829553   -2.09260051074322
H         1.47249922639595   -1.54944086900278    1.13236341375149
