39
 energy: -52.276296007584 gnorm: 0.109037503794 xtb: 6.4.1 (79825abcba525fcdf90b791dcacef51065a7a4e7)
C         3.74521303296770    1.75671087309323    3.80957872320506
C         3.56735403603671    2.07012219464258    2.31819310322572
N         4.64861622318414    1.41531210935884    1.60253006784461
C         4.71651797649592    1.28355749913777    0.24020387694237
N         5.84121826471116    1.10012057517825   -0.38562077539584
C         5.60872530669638    0.58884130317175   -1.73518961896850
C         4.12109014748991    0.27204012156918   -1.79408077648702
C         3.48612365487980    1.08740972186310   -0.66678404684485
C         3.02433363218475    2.50140786567329   -1.12600642696925
N         2.48782771613545    3.46475147721322   -0.14268949991394
C         3.45818620578216    4.10904416453997    0.73580995446653
C         3.66602505983705    3.61851140672418    2.19702687423101
N         5.00609558783836    3.99876647658688    2.70467064840217
N         2.42987353218585    0.31860529934071    0.00531144300599
C         1.25462919000985   -0.12904285556346   -0.53517020370357
C         0.57060427627974    0.45489609318712   -1.74602016426785
N         0.56499657200363   -1.10373027652009   -0.04410172119192
H         2.76448886671671    1.79773259538895    4.29096772981906
H         4.44711150396815    2.44438804290128    4.29026496692461
H         4.22743149947398    0.79128346638024    3.99187853291218
H         2.58601913095013    1.74479675703980    1.96452325770051
H         5.46725714534645    1.30634881494436    2.19830165783688
H         6.32248146923512   -0.23938835750733   -1.82123602234524
H         5.87404008551535    1.33986271764139   -2.48259472102632
H         3.96791985014647   -0.81103098546817   -1.71627917205888
H         3.72867864395243    0.43407969250853   -2.80610476569552
H         2.17139837363969    2.32888806335730   -1.79200583962460
H         3.78063014805456    3.06637722137699   -1.68557042717649
H         1.66625114612718    3.11397602951428    0.34683337635792
H         3.12615594286628    5.15205371185703    0.82820393211556
H         4.43029861763594    4.04142763505558    0.23096699318028
H         2.85270314816922    3.95319296102903    2.85523353561630
H         5.01246588644854    4.94550548153815    3.09199782288533
H         5.68000778813982    4.08607699827026    1.94664391859022
H         2.78980900202308   -0.22034736857110    0.78651057383500
H        -0.37834693932706   -0.02005338679146   -1.98069866160855
H         1.17761337495818    0.59823423851199   -2.64463397427108
H         0.32949207565374    1.48162414546975   -1.45258724044841
H         0.94064503787189   -1.41419690955362    0.85340793499640
