39
 energy: -52.262820322692 gnorm: 0.124428466222 xtb: 6.4.1 (79825abcba525fcdf90b791dcacef51065a7a4e7)
C         3.66727515878303    1.41162134662689    3.51177261871949
C         3.55655911323162    2.07024575252302    2.13045172037678
N         4.80838729436349    1.68182936824500    1.50424351736593
C         4.79645014707149    1.30036320109397    0.18809622127079
N         5.91045627268983    1.09576727426132   -0.45017272042372
C         5.66311468967612    0.59528650497218   -1.80114891915134
C         4.15058318181357    0.47676219024490   -1.92399014667564
C         3.53647306551595    1.12293427319823   -0.68135649136167
C         3.06759732966961    2.55989023187388   -1.05396770062673
N         2.33084089922383    3.37595596412578   -0.06704906878326
C         3.12166972767275    4.18663308569951    0.85265867717255
C         3.54033455953342    3.62253482923851    2.24027793390510
N         4.84850738207400    4.20036926754527    2.63127202522796
N         2.61038083949700    0.13807713434373   -0.10616388678527
C         1.32014984135577   -0.23402635247994   -0.37177923127081
C         0.58061868928631    0.42259828158221   -1.51062521317866
N         0.64360782024558   -1.04599076742910    0.36967990190350
H         2.96912141295009    1.88832633929388    4.20500544483460
H         4.64886771717038    1.49910242459619    3.98658177393024
H         3.30920111440876    0.37921514573304    3.57291482389049
H         2.69204708387533    1.78051263856587    1.52827991139268
H         5.64565870192931    1.99431600409786    1.99242223040798
H         6.17763338376840   -0.36635883449864   -1.91658277821162
H         6.15758611372609    1.34093489318322   -2.42768382011511
H         3.91500566115036   -0.58516627413638   -2.06316066747762
H         3.86716337165571    1.08153574896831   -2.79482787026789
H         2.46031956252242    2.56846018252236   -1.96608453752324
H         3.96420848054213    3.15862608670598   -1.25863938198953
H         1.50035983510335    3.00227303243117    0.38937879034174
H         2.58195479290398    5.12438188058765    1.04235488282412
H         4.06459043544079    4.49538734304877    0.38360398530133
H         2.81733228622946    3.88287965713945    3.02528021087807
H         5.60689022536661    4.33257793763809    1.95765938018128
H         5.24599482312992    3.84339690679860    3.49785137721137
H         3.14581144030591   -0.44086401368281    0.53292673948855
H         0.87677453508614    0.06802779268599   -2.49435835834608
H         0.68165457941426    1.50815695036147   -1.59932006494102
H        -0.50385396810299    0.27318875995532   -1.51270081001895
H         1.18702131697541   -1.55496443650365    1.06873101247253
