39
 energy: -52.260726161429 gnorm: 0.129889745676 xtb: 6.4.1 (79825abcba525fcdf90b791dcacef51065a7a4e7)
C         3.96422087528186    1.55316127472080    3.72883582165225
C         3.66305688877066    2.15579020110548    2.35034745138059
N         4.67583396710171    1.58040896387252    1.48242073555064
C         4.59734043791708    1.17856487547952    0.17465060580680
N         5.74101024829091    0.96265198589579   -0.40470883640445
C         5.45209135538703    0.64090075801127   -1.80106035735657
C         3.94473058026843    0.47339387771780   -1.93026748252812
C         3.34685069181335    1.20172787906380   -0.72574383596741
C         2.97100156290983    2.67682850214344   -1.05184443046176
N         2.59587103953702    3.70047116560474   -0.05474137930421
C         3.67571670945732    4.17614186208740    0.80324503614841
C         3.68025947501876    3.71066960133595    2.28725622679352
N         4.79132936140516    4.43774372457144    2.94678034737964
N         2.25144243705938    0.47802635073231   -0.06637003447923
C         1.28973109405466   -0.34392591855340   -0.58906912853940
C         0.54520241985565   -0.02812565176944   -1.86224613129122
N         0.85889272119905   -1.41256729277857   -0.00671108186788
H         3.32143856230879    2.04200401514598    4.46579017816212
H         5.00492607840524    1.74774322091890    4.00395609977277
H         3.81666402871192    0.47012543264184    3.67335345321740
H         2.69397338675884    1.75612359313500    2.04199542540673
H         5.65347320370334    1.64643808533170    1.75964166134537
H         6.03454795558351   -0.22751557600386   -2.13183762326915
H         5.73695858902655    1.58768327127653   -2.26527261980002
H         3.62026987798677   -0.56925730903996   -1.82946555961205
H         3.51858653831463    0.87577461933997   -2.85812909822605
H         2.11606246674980    2.71796192804479   -1.73609880192439
H         3.88220785327028    3.04360486456380   -1.54119592089453
H         1.88926686388536    3.25495160604732    0.52825689865000
H         3.49197458118631    5.25330310430482    0.91554887732988
H         4.62113237398083    4.13927137199729    0.24712387973263
H         2.69308414016312    3.94491272700749    2.70839195670623
H         5.69621527295645    3.99071025220453    2.78028642702653
H         4.50046859462595    4.69300849236167    3.88838813018293
H         2.58001219848127   -0.06844765789295    0.72337910439556
H         1.39241338845970   -0.03525856510384   -2.54293851956480
H         0.00676341887780    0.91592081338869   -1.73826074836691
H        -0.21828965505462   -0.74728275295657   -2.17577664206348
H         1.40341725658511   -1.79135338436048    0.76984478189128
