39
 energy: -52.272194600236 gnorm: 0.114180828280 xtb: 6.4.1 (79825abcba525fcdf90b791dcacef51065a7a4e7)
C         3.39497924767868    1.55120453486659    3.64713886661520
C         3.50609956991669    2.06534542851205    2.20581898894054
N         4.60876743431492    1.41912978713316    1.51545189055620
C         4.61043059584976    1.40931150120857    0.14512218892701
N         5.74040243170752    1.34993875069584   -0.49510817670711
C         5.51870413180558    1.04914513834913   -1.90832033939972
C         4.04896022120278    0.67966683332288   -2.05054609151879
C         3.38790323737370    1.17447849447267   -0.76331142841767
C         2.83001767989008    2.59512880859413   -1.06997479352859
N         2.58984535318219    3.53860648996600    0.04130772548352
C         3.77865331853188    4.04468982117491    0.71886603657010
C         3.76144002360336    3.60050522015346    2.20929484736588
N         5.03117564280272    4.00333819187422    2.86012678378410
N         2.53859310404727    0.19461138377386   -0.07268150044531
C         1.33945690159247   -0.37457764266504   -0.40705373408333
C         0.51569891902805    0.14904815835380   -1.55695426482748
N         0.83968358977682   -1.29542221082732    0.34728630571726
H         2.61627617946789    2.12622214562476    4.15528681041520
H         4.31195496492065    1.75954999290514    4.20603807773632
H         3.18034432727488    0.47814162818633    3.63023312753716
H         2.61240282282266    1.74941260122892    1.66228445384043
H         5.50576118506355    1.71651949873615    1.89486110143342
H         6.17909613047649    0.27367922682861   -2.31495438714031
H         5.72708885851650    2.01920941321784   -2.36503753954784
H         4.00552545964433   -0.41121224969423   -2.15376195044447
H         3.68381111173322    1.10794049725025   -2.99271591526389
H         1.85873565811139    2.45049008949277   -1.55629540962993
H         3.62690876533445    3.05243276740465   -1.67007842999845
H         1.90730210862510    3.21941376774371    0.72681108350234
H         3.72662385606320    5.14192976601796    0.71620045046932
H         4.72849922643555    3.75651490356057    0.25068986593369
H         3.05934805223384    4.20735154492556    2.79712534622447
H         5.84562338416510    3.68008842762735    2.33233692670754
H         5.11850321273350    3.75816536623071    3.84432670619054
H         3.16591329935403   -0.30912429572231    0.54620084704802
H         1.13350004091244    0.40477088755105   -2.41374308479707
H        -0.04633275031574    0.98319077829444   -1.12702502201187
H        -0.08802478651850   -0.63972928676429   -2.01712411859990
H         1.39142112155427   -1.65370254886257    1.12846859963550
