39
 energy: -52.267397998855 gnorm: 0.106557778838 xtb: 6.4.1 (79825abcba525fcdf90b791dcacef51065a7a4e7)
C         3.75619704136678    1.56122958106751    3.64795885916497
C         3.59210698215717    1.93847946400116    2.16983554377534
N         4.72355371748793    1.38583461602568    1.44561892359751
C         4.85559185714396    1.09763583513394    0.11242351264816
N         6.02307905357538    1.02037121532158   -0.45437467889819
C         5.82289554768009    0.56869683185007   -1.83013350935736
C         4.32508678523951    0.50290768181869   -2.09305980215854
C         3.65113667388843    1.08302807954499   -0.84884939134872
C         3.10579065652828    2.51173915799449   -1.14023981742887
N         2.35389199639363    3.25301182860632   -0.10682559970084
C         3.24115307296435    4.04855455061857    0.73480943677383
C         3.46900745750759    3.48985644733081    2.16830623967920
N         4.48962821431386    4.32952678144679    2.84014858411930
N         2.60721271579209    0.23250513917416   -0.26125222841642
C         1.26119406975467   -0.00754323769094   -0.32697231785366
C         0.34904480829684    0.70821001748198   -1.29170721191880
N         0.66021765973322   -0.70038346653930    0.58162921488508
H         2.85003599295300    1.83048626064632    4.19715012346909
H         4.68188548727932    1.96381596529002    4.06943925656910
H         3.96056102386241    0.48607120211355    3.65732768663872
H         2.62844045150085    1.56544503040145    1.81468863190354
H         5.60015907791634    1.45699936728634    1.95893011592506
H         6.31734131251464   -0.39127760318635   -2.02193728639251
H         6.26721635592539    1.23007000028128   -2.57726404718256
H         4.00814913981322   -0.53007969149828   -2.28026257430010
H         4.16515034280357    0.94445471685009   -3.08497346965644
H         2.40130505656070    2.44605907900844   -1.97702116759226
H         3.95806170401035    3.12692127468193   -1.45563116822197
H         1.73635927577955    2.63512598614320    0.41713485048246
H         2.76886837523818    5.03986749509622    0.76473387728297
H         4.21696350629653    4.15283162463174    0.24352413668075
H         2.58136379377045    3.69501315785587    2.78209752085566
H         5.31617413486787    4.43434331383227    2.24667322726946
H         4.80477645876386    4.09025439034457    3.77813344982758
H         3.02578981979919   -0.46386223216006    0.34715660729869
H        -0.63281272317779    0.31400701072082   -1.04327371214569
H         0.40800537654280    0.38865974441814   -2.33618025042677
H         0.34926558498504    1.80280927112520   -1.30785909011724
H         1.34357896549410   -1.10996437589542    1.22060158497685
