39
 energy: -52.264708232967 gnorm: 0.109407919927 xtb: 6.4.1 (79825abcba525fcdf90b791dcacef51065a7a4e7)
C         3.72164958106925    1.58057754649709    3.72726936715397
C         3.66565951208951    2.06645176137562    2.27300566202406
N         4.65816977521134    1.31304487200349    1.52642729505258
C         4.70304870338066    1.27491420377948    0.15732733369484
N         5.82483653730932    1.17140156816539   -0.49162080022705
C         5.50998514640508    1.02198513389916   -1.91124713192799
C         4.04247032637272    0.63454490194424   -2.02605101406597
C         3.43699580704192    1.11632864802351   -0.70692508043529
C         2.87156321637534    2.53206649513171   -1.02235909725535
N         2.63331112790054    3.58943920463928   -0.01837666412164
C         3.76106608570552    4.16843226781418    0.70370767984844
C         3.69530650082745    3.61808540095335    2.15690012708200
N         4.74924079447980    4.28918986001560    2.95497684440087
N         2.49425468113016    0.17716816132481   -0.08430639931641
C         1.22291905533145   -0.22173797113419   -0.39781630586414
C         0.78409742438920   -0.32364249444546   -1.83728970372745
N         0.40226172148762   -0.67918490634740    0.48763328363067
H         3.30044517281683    2.24306331301431    4.48814879452347
H         4.73299739931183    1.32665830357775    4.05790697602085
H         3.09964231513967    0.68007479278086    3.72283044449955
H         2.67278835743694    1.77565869152072    1.92146124704367
H         5.60942410673354    1.16318913220674    1.85755906375533
H         6.11178197266503    0.22756239768326   -2.36901272548552
H         5.71911179178719    1.99516315594312   -2.36094713791219
H         3.95424028730307   -0.44692530980486   -2.18478022254082
H         3.64185398940907    1.13009551483366   -2.91956787354920
H         1.91933973701618    2.47575169124904   -1.56172540337426
H         3.54884722900401    2.91725596647197   -1.79514767006243
H         1.87170866838070    3.29459510750784    0.59046880297376
H         3.69019985782946    5.26423154399177    0.73288974140458
H         4.70850437602293    3.89130081924612    0.22412472804865
H         2.70624297759968    4.02065498859343    2.41464294230891
H         5.62725901155746    3.96209228049982    2.54452727568477
H         4.60663110612471    4.07560000758122    3.94007945561789
H         2.85568846408146   -0.18347799260563    0.79295963374674
H         1.64518475899366   -0.80354483375267   -2.29487226970259
H         0.49946365553241    0.56985843745811   -2.40045256736504
H        -0.04730139214983   -1.00248074459123   -2.05261074319589
H         0.66039479073712   -0.55511171384109    1.46793837779177
