39
 energy: -52.266476569107 gnorm: 0.111615221541 xtb: 6.4.1 (79825abcba525fcdf90b791dcacef51065a7a4e7)
C         3.68894904996274    1.47692027201471    3.74682207694231
C         3.59035919780281    2.07552293110844    2.33755047647511
N         4.64690576817008    1.52817144994318    1.50436775247577
C         4.66810762049158    1.39652903411564    0.14050436311204
N         5.77575308038161    1.22913424818796   -0.51931141884252
C         5.43840004589908    1.00920143223534   -1.92452244403566
C         3.95843252883132    0.65617740821599   -1.96879115271459
C         3.37729279014682    1.26224071053406   -0.69060030174100
C         2.77442590052159    2.65633310393597   -1.03204415126106
N         2.39651316058792    3.48663350004632    0.13009392956146
C         3.51015945236564    4.10942471248283    0.83747855828798
C         3.75484777366861    3.62245159840820    2.29417313487323
N         5.13718298407645    3.98287801332967    2.69081820314521
N         2.45900948638050    0.36329786044108    0.02150534130745
C         1.30187836865403   -0.18394820514066   -0.46354915537636
C         0.98208195716714   -0.21693795888825   -1.93720933993459
N         0.49554610569210   -0.83394317674428    0.30722434041712
H         2.81775752282882    1.78025924888647    4.33354930152469
H         4.60993173184742    1.84649134941077    4.20707063803130
H         3.79185957488806    0.38865696403108    3.69287446304246
H         2.62211210348996    1.79874147688460    1.91349058523986
H         5.52142304679168    1.19490217529364    1.90579131181304
H         6.24093122735297    0.34842004943041   -2.27399044281321
H         5.64558052703156    1.96515748084906   -2.41059215992099
H         3.71591508206686   -0.41103020693000   -1.89943367027810
H         3.39262307948436    1.02371260211789   -2.83436248216801
H         1.95973257169356    2.57489288283148   -1.76037039600309
H         3.55299094628703    3.20957988933790   -1.57245246076245
H         1.72403692615812    3.01531286652928    0.73283491844887
H         3.31905659145112    5.18934282918964    0.77497880577005
H         4.38842901280855    3.93215451428190    0.20371297731083
H         3.04646144793653    3.92972792266520    3.07552475900620
H         5.74176690220361    3.52337461038112    2.00546240137224
H         5.34600619724551    3.48257040925252    3.55248546639362
H         2.95455049029374    0.05874280703081    0.85335925788134
H         1.84570669897653   -0.49158160287713   -2.53711149274888
H         0.61208337633862    0.76433209102332   -2.24821222618624
H         0.11574003828910   -0.88319655316710   -2.00013494346067
H         0.75905092699765   -1.04080850692883    1.27200246073019
