39
 energy: -52.262221714826 gnorm: 0.121657649324 xtb: 6.4.1 (79825abcba525fcdf90b791dcacef51065a7a4e7)
C         3.83793588516116    1.66043478990449    3.85098546810196
C         3.70735332367402    2.14772684861590    2.40199057687776
N         4.71189212000157    1.46798257787772    1.60266129869741
C         4.74094818234064    1.17071969659410    0.26524096517121
N         5.87993450289315    0.84799060498261   -0.27217179206022
C         5.62021118424436    0.58967950829604   -1.68730949784540
C         4.12124140682740    0.61149935816324   -1.95094380540021
C         3.51339540257525    1.17666285977622   -0.66645112191660
C         3.20189976536896    2.68827104418188   -0.87025789216399
N         2.24874648758340    3.24838841510601    0.10981816816443
C         2.64092191364381    4.15708497458336    1.18170387412226
C         3.71771686139614    3.69112903488426    2.20267007086762
N         5.05309607599363    4.28705251620466    1.95828779906017
N         2.42104937909144    0.36815477528060   -0.10830078805065
C         1.34303597684376   -0.24797043243838   -0.68448253450433
C         0.56260602527389    0.37388433938799   -1.81552548682972
N         0.83960649042042   -1.31768267101124   -0.16580010592562
H         3.06934936449790    2.24974737220416    4.35815752220295
H         4.85743651598022    1.70798098243160    4.24465848114427
H         3.57550387972214    0.59816396460510    3.87396561864870
H         2.72662255229391    1.90202187408701    1.98758326055786
H         5.65814515515990    1.37251318453548    1.96664008100328
H         6.00077474265732   -0.43633457677134   -1.75999169122471
H         6.29345279100171    1.27351899987163   -2.20898830668319
H         3.64416137603998   -0.36387004387577   -2.10458769734687
H         3.92262910813800    1.32643580357494   -2.75955695305257
H         2.72744882605575    2.86556466936182   -1.84199867016025
H         4.21051545286259    3.11774013026846   -0.81988541334485
H         1.57045474112383    2.55707267058075    0.42551893875776
H         1.75674482455874    4.44513183067030    1.76643419180021
H         3.17662975448080    4.99187474987890    0.71204006139004
H         3.53725304958158    4.30450523776591    3.09594647231212
H         5.44275329067230    3.86611674953291    1.11131790586193
H         5.63296297828093    4.02455091096606    2.75278927030740
H         2.62629224191640    0.06700834385820    0.83905437840714
H         1.11727426569772    0.27093528680914   -2.74445178068171
H         0.43989806549065    1.45489170420157   -1.70204204021299
H        -0.41312147589097   -0.11626263970067   -1.89375750576777
H         1.41131333662117   -1.75415794302854    0.55922782707989
