39
 energy: -52.272025555267 gnorm: 0.113489649509 xtb: 6.4.1 (79825abcba525fcdf90b791dcacef51065a7a4e7)
C         3.97921081400241    1.39444998006474    3.61381292576861
C         3.79352179064419    2.11099853228935    2.26987495561612
N         4.86465357089420    1.75105526998530    1.35707965217061
C         4.81585702580198    1.21142812753933    0.09838031964234
N         5.90895928871259    0.90524750257955   -0.53536821116810
C         5.56751241362644    0.44193698616560   -1.87907685877470
C         4.04685533803164    0.46481674764650   -1.94206971569135
C         3.50301343616789    1.18658689988885   -0.70833887037518
C         3.01480537012295    2.60824293794320   -1.11339808822706
N         2.46066136966101    3.46820014582450   -0.04748077709697
C         3.23390147925141    4.25029160946713    0.91111330724089
C         3.43482117031127    3.62449619283798    2.32071808026262
N         4.39077439663247    4.48540703339511    3.05765163856018
N         2.47995788272563    0.47262574582865    0.06758234829767
C         1.44275807645659   -0.22475129900416   -0.49062047516229
C         0.75271309227250    0.26016286370783   -1.74111181990810
N         0.74313643695191   -1.15276254091008    0.07159094126676
H         3.21709671791051    1.71349696941221    4.32979418464826
H         4.88330648481903    1.61965904496593    4.18697302696027
H         4.01907986558947    0.31859522919814    3.41692474513226
H         2.92708300845478    1.71331147679014    1.73595920001393
H         5.81276506504484    1.77064220318746    1.72814661135801
H         5.96686623903760   -0.57631288127287   -1.95969909006670
H         5.93185820787720    1.10781430515657   -2.66450605495373
H         3.53677233098206   -0.50140782724469   -1.84835384463899
H         3.74851115199179    0.92684716666717   -2.89178273167888
H         2.16691514799946    2.53751043607055   -1.80397461193839
H         3.81339856336105    3.13786477475500   -1.64822169127191
H         1.70913598786424    2.92622770219378    0.37576807848687
H         2.58009649731501    5.12887710641081    0.99641410845119
H         4.22414657526566    4.49105906570565    0.50382149078821
H         2.49781958403208    3.68111550116564    2.89129896890655
H         5.26707957702331    4.42480597206466    2.53344327890691
H         4.49420501373678    4.08958840981147    3.98986139332628
H         2.83540976052945   -0.04861320380695    0.86272984062009
H         0.35540511722500    1.25853565434233   -1.57814688802452
H        -0.10329169019718   -0.38681367192560   -1.95369082781688
H         1.38834249818012    0.35597744116445   -2.62722879142604
H         1.04998083873980   -1.48971791825830    0.98555618582794
