39
 energy: -52.267562176189 gnorm: 0.116190583878 xtb: 6.4.1 (79825abcba525fcdf90b791dcacef51065a7a4e7)
C         3.79061504789287    1.38280359375432    3.54456644400164
C         3.71049565474097    2.12288075471370    2.20294122360939
N         4.87137434365319    1.66429967406032    1.45987875662112
C         4.84686399648254    1.31085623370833    0.13610400796260
N         5.93671738076147    1.10338445978169   -0.54170970636146
C         5.52406753774564    0.63349585129993   -1.86296681601265
C         4.03729627449786    0.30984957151843   -1.90363429871342
C         3.55803945529212    1.09205379954628   -0.68000141386402
C         3.06195442735839    2.48986469097340   -1.15281254550210
N         2.53346699079931    3.35975651233788   -0.08193862011341
C         3.41851336504646    4.15265091183535    0.76451359666579
C         3.58079910131538    3.67338520229345    2.23520798860919
N         4.55929093178965    4.42742846763166    3.05499919908352
N         2.53884727856209    0.27129680609243   -0.01213751031822
C         1.25710610833912   -0.05105354537799   -0.36842163475043
C         0.53833905427833    0.43186051745583   -1.60341165388902
N         0.64329205189204   -1.05376161825116    0.16502545861502
H         2.80959492241500    1.28174240632467    4.01639713251322
H         4.44529555633439    1.94331910538718    4.21824026180009
H         4.11600471780731    0.34007371183766    3.47634690588388
H         2.85740013932022    1.70266293050609    1.66481277353562
H         5.75776728147475    1.97999874281733    1.84927754221807
H         6.06013349930792   -0.27516204065017   -2.16261718308226
H         5.77148551098344    1.38667334389513   -2.61433057773353
H         3.84109180427204   -0.71855927666520   -1.57738849849870
H         3.52529522811662    0.57893410065510   -2.83631035492342
H         2.20579868422100    2.53526880854930   -1.83527328673379
H         3.89119371184449    3.08278854081404   -1.55912546951616
H         1.76047292718383    2.92315388769826    0.41758360403538
H         3.00015685997916    5.16827248876709    0.77635875285237
H         4.43809266248325    4.12214728678802    0.35958330559275
H         2.64066661373211    3.83907909668782    2.77874890474849
H         5.44605394786583    4.51805368685049    2.55318639816627
H         4.67226836125052    3.96753392220285    3.95617532605242
H         2.92321333524431   -0.20998435873383    0.79466282642935
H         1.17405440858332    0.18006337614835   -2.44817411253744
H         0.20298399894032    1.47289494630226   -1.58617914961105
H        -0.38454485951107   -0.14040719169862   -1.74198804193538
H         1.12848871024071   -1.58898429795992    0.88692972355013
