39
 energy: -52.261151326674 gnorm: 0.122724765571 xtb: 6.4.1 (79825abcba525fcdf90b791dcacef51065a7a4e7)
C         3.91758183738261    1.74994655379569    3.83456095863252
C         3.65042739756573    2.11553113913227    2.36859098465121
N         4.62082352297848    1.48112917305249    1.49340914819212
C         4.70383337766865    1.20030540998204    0.15469708966915
N         5.80388048430041    1.18125147089337   -0.53797142725658
C         5.46691685609047    0.72576158383060   -1.88548024785664
C         3.96430786631804    0.53492288537089   -2.03593409868364
C         3.45875220050634    1.19708580073193   -0.75345145175084
C         2.88690432384207    2.59900387466734   -1.11558642189624
N         2.51940168311095    3.57042226690972   -0.06483915281387
C         3.61034640806736    4.08254551888588    0.75737696561213
C         3.65889323938830    3.66765007005922    2.25553558124378
N         4.80258696525159    4.23499531953653    3.00930554921567
N         2.43716470532345    0.40040281850627   -0.06056460349317
C         1.40870769099089   -0.34467889521374   -0.57128762083353
C         0.65462878528931    0.01936679352155   -1.82582665282810
N         0.78602507976337   -1.27529967641023    0.07133849088063
H         3.01468463383091    2.07991360250614    4.35526858973441
H         4.83318152929935    2.18667426618630    4.24391010998429
H         3.93196712471108    0.65585491069936    3.85852949423706
H         2.65732613686459    1.71976155620276    2.14264072167263
H         5.54536114016381    1.44033263657036    1.91832748840818
H         5.99707109797272   -0.21397390831299   -2.08207604233979
H         5.92510730485296    1.43859593222426   -2.57465961083788
H         3.69495710308650   -0.52697994334545   -1.98725329847039
H         3.42795200918470    1.00612207511584   -2.86943869062315
H         1.90855491738301    2.37107180420648   -1.55341775689107
H         3.62811911145079    3.05869157811420   -1.78160033583857
H         1.63800937065103    3.42685233228634    0.42526225232234
H         3.54811141255055    5.17853228859394    0.71750885972509
H         4.58524800754445    3.91397237342951    0.28241284429495
H         2.74880382520701    3.99067258068989    2.77911365283032
H         5.68014329413696    3.77483218179878    2.75529287315253
H         4.66625989427558    4.18800066968000    4.01707126383692
H         2.61710512165557    0.02354730316213    0.86458240539125
H         1.35275594511865   -0.08538001545399   -2.65214741541774
H         0.33161547676243    1.05520893803705   -1.68724051073865
H        -0.26720967763427   -0.55015344119678   -1.98161182136205
H         1.04212223532823   -1.41040166111775    1.05071920641686
