39
 energy: -52.265716297041 gnorm: 0.118480456402 xtb: 6.4.1 (79825abcba525fcdf90b791dcacef51065a7a4e7)
C         3.88609162935426    1.55921513500406    3.79420266877740
C         3.58933857645199    2.07512482270047    2.38003634541801
N         4.60415933999524    1.49113474474100    1.52028510751671
C         4.59363531834627    1.32650319465528    0.15988504428253
N         5.70993544414223    1.39519094284828   -0.50299685262127
C         5.43766595843910    0.96906583621371   -1.87452237976280
C         4.01187095409459    0.44323777465659   -1.96114224614192
C         3.37174976265954    1.14233534218754   -0.76101081948104
C         2.92488609417091    2.61326361979233   -1.00638583566929
N         2.46024963515748    3.38648807596461    0.16366485958696
C         3.56027240663553    4.01926520661711    0.88339605183492
C         3.74704188282593    3.62336200072706    2.37582766088944
N         5.02270009438631    4.19610950912705    2.86851576706460
N         2.31873524560840    0.33507828504642   -0.13019118105784
C         1.20435644894689   -0.34893376996477   -0.53515533948392
C         0.83315797496256   -0.13523606366028   -1.98138402378672
N         0.45885748461816   -1.08435815958760    0.21992030881365
H         3.25246498743148    2.05744674690035    4.53279632723990
H         4.96408657512428    1.63013988922842    3.96600837288044
H         3.61105351621199    0.50159026385206    3.85421618480718
H         2.61935949238563    1.76474546918438    1.98412922903085
H         5.54737200895936    1.66910732718018    1.86038125891613
H         6.21237978217708    0.29146490804926   -2.25332535515682
H         5.60269408588409    1.84381413184863   -2.50746837181664
H         4.06179872015289   -0.63115968916333   -1.74728580205627
H         3.54694159293388    0.62264195677218   -2.93894130866899
H         2.05526051161695    2.64362597109050   -1.67245365417989
H         3.80750296203512    3.07722903392346   -1.46465458545271
H         1.64947052432389    3.97739237261839   -0.01278194873649
H         3.33632580855496    5.09224628364731    0.81122128983310
H         4.49838145627174    3.79658870748325    0.35917515549081
H         3.03349631428536    4.14735348767894    3.02623209992652
H         5.73688134749955    3.85915202411840    2.21829852785294
H         5.35247908231119    3.72350167152464    3.70772548876103
H         2.42862011198177    0.24331544544653    0.87469712701516
H         1.64882605950784   -0.57682354821935   -2.54781627561808
H         0.83565734333042    0.92963549023323   -2.23149396999897
H        -0.08022452875548   -0.55061181996334   -2.41910978414504
H         0.83473251437727   -1.05304616892926    1.16900534598045
