39
 energy: -52.268161925139 gnorm: 0.117867265864 xtb: 6.4.1 (79825abcba525fcdf90b791dcacef51065a7a4e7)
C         3.68665020518039    1.58817901597081    3.79965963416513
C         3.66259786209267    2.04313240389515    2.33455539574037
N         4.73584973905297    1.42363919144137    1.57663963768893
C         4.71614678637543    1.30638884152792    0.21144121897818
N         5.80310800845846    1.11105253450454   -0.47457290391511
C         5.54637419481386    0.67330018531145   -1.84543254755495
C         4.03525776045152    0.56067384440706   -1.98941852172121
C         3.49132030009946    1.21668112452191   -0.71953882184288
C         2.86719484768107    2.60777507682131   -1.03394461632158
N         2.30782342608687    3.44291301511257    0.04884341915576
C         3.37008680910580    4.13055058668562    0.77494330365168
C         3.57068175825748    3.59246611563851    2.22035017785081
N         4.72737116013453    4.38106680967474    2.70847280935696
N         2.57837531024903    0.29119711019496   -0.03510641506107
C         1.40797633006976   -0.23213770224116   -0.51468484112005
C         0.68801942112167    0.39072302219437   -1.68461603225907
N         0.88646133148526   -1.32643977979110   -0.07052040478006
H         3.02954026693766    2.19735662694463    4.42603588650055
H         4.74760596472877    1.63643502031808    4.06169942783561
H         3.48861058455477    0.52357268658767    3.95844129452460
H         2.69147270630663    1.79306647659369    1.90059668816303
H         5.69695771890484    1.39456302333360    1.91192425280005
H         5.99831898644074   -0.32554206668746   -1.87503456469069
H         6.06898364986258    1.30369690574464   -2.56828717680444
H         3.68848502008321   -0.47712883536456   -1.91681322068484
H         3.71174674373314    1.05925798214334   -2.91201846326375
H         2.06948658710432    2.44747399910552   -1.76796229009665
H         3.66327547450053    3.27726948500468   -1.38368672617479
H         1.63379811280971    2.97814457838844    0.65493276740201
H         3.05415660386389    5.17460883226436    0.90448150090581
H         4.36293709534733    4.02272474088725    0.31990171434871
H         2.71726126584723    3.89645946630748    2.84164059592331
H         5.46011471479403    4.10336468231425    2.05094252332199
H         5.09696314533619    4.14040253551007    3.62600633631233
H         3.07563323979337   -0.32917119670673    0.59590335210477
H         0.76069772115847    1.46980078203533   -1.57752505286138
H        -0.35248787291377    0.05807949320758   -1.62799877317280
H         1.21694331579290    0.13976552217691   -2.60963944409160
H         1.40264826313845   -1.81060921241556    0.66579195754217
