39
 energy: -52.270841343481 gnorm: 0.114661488711 xtb: 6.4.1 (79825abcba525fcdf90b791dcacef51065a7a4e7)
C         3.77987268961205    1.61502363183515    3.81286182774657
C         3.53051213994240    2.06246788225574    2.36658920010935
N         4.59939614449054    1.41985361720373    1.62186667010616
C         4.75386873682226    1.22861476548051    0.27373146847837
N         5.90326450182420    0.89702671177704   -0.23538059159550
C         5.63982601546243    0.62834221311050   -1.64789761650398
C         4.15357198688775    0.70034304829644   -1.96845083872986
C         3.54159780053386    1.24627023880674   -0.67761426905796
C         3.04579516688859    2.70995317254666   -0.86559825854884
N         2.15779128022689    3.35155748094336    0.12565079701586
C         2.75207335234111    4.21651005762844    1.13913775380893
C         3.66752319053382    3.60742878813318    2.23911314713096
N         5.02425895911644    4.06866529040663    1.85883156544324
N         2.55367662342042    0.32695738002972   -0.09682814360798
C         1.39817121584263   -0.20401405337555   -0.60337046949207
C         0.68161690045008    0.35497834035418   -1.80716024021420
N         0.79498160759674   -1.19171382948421   -0.03120929254338
H         3.07921689606215    2.07734004689824    4.51327816144602
H         4.79374912277104    1.87549212101886    4.13040137538903
H         3.65850783655336    0.54632640281010    4.01528404357001
H         2.57593366978727    1.72276245308624    1.95754474876697
H         5.56368109658784    1.49543312041739    1.94035063510674
H         6.09679893788263   -0.35732583032253   -1.79773243686933
H         6.36761193236149    1.25873474239446   -2.16362273938608
H         3.67713744690096   -0.27585291190795   -2.11881320063127
H         4.05011052090523    1.36305889983386   -2.83709322435106
H         2.47357614890048    2.72732985989312   -1.79998591728794
H         4.00442532523098    3.23383632565115   -0.96981598274156
H         1.63124346537965    2.66498038542245    0.66325977435543
H         1.96856342707088    4.78337166308261    1.66012698035321
H         3.41696415068229    4.92591078078853    0.63010750765409
H         3.47887929707347    4.18356606747393    3.15520244103216
H         5.29412688462906    3.84461136148033    0.89792116240491
H         5.75117042089219    3.71461040131412    2.47740263320235
H         3.08594489341743   -0.33030457956596    0.46441406140965
H         1.22807491876689    0.11265787388903   -2.71480766112792
H         0.47404302063143    1.42822768311726   -1.76764337877441
H        -0.30783268168272   -0.11270011410252   -1.83313813390339
H         1.23479544029847   -1.49426168822176    0.83945336676101
