39
 energy: -52.274169042148 gnorm: 0.099256509692 xtb: 6.4.1 (79825abcba525fcdf90b791dcacef51065a7a4e7)
C         3.79428488275177    1.58699145559614    3.83402200788014
C         3.59780234062142    1.96341322682269    2.35964322105213
N         4.62882517611989    1.35269761530212    1.53860965938597
C         4.69839278446589    1.26846366237610    0.17260541354238
N         5.84587333589498    1.01409565738663   -0.38312984201461
C         5.68411827846655    0.93224840069739   -1.83362350716373
C         4.23148502954222    0.51325821181840   -2.01024006192014
C         3.52420563065931    1.16258818406673   -0.81988951814028
C         2.88180854728524    2.52574594161040   -1.21059773271735
N         2.38059714989110    3.48557135989246   -0.20545893640094
C         3.44170478847223    3.93511317864518    0.68921010784811
C         3.48952483362270    3.50585265282595    2.18333959087744
N         4.66183530794573    4.23770268880083    2.72015316704914
N         2.59665257544036    0.30238295818132   -0.07280903129098
C         1.37063336580795   -0.19072094713348   -0.42978803562986
C         0.58706743763135    0.47005820462915   -1.53632668202366
N         0.73967123342811   -1.09012741562985    0.24823244344224
H         3.45159081830013    0.57551902607281    4.06795009263674
H         3.15440658999905    2.25188946211996    4.42146309531603
H         4.80933172412090    1.77196596723043    4.19910047563203
H         2.70097030369215    1.47048388209036    1.97669392472520
H         5.58242625073750    1.38222468646035    1.89464744848114
H         6.43856873048567    0.33611279596859   -2.36111101773231
H         5.82589104102173    1.88137881287148   -2.35524735065825
H         4.12620004385736   -0.57425563802208   -1.91650658823514
H         3.73347756393307    0.90474817155857   -2.90643220590077
H         2.05457427479484    2.40148673598313   -1.91845362294666
H         3.71085927757784    3.06116262478210   -1.69048370234766
H         1.61578199571313    3.15329972558841    0.37962008803943
H         3.52251073143644    5.02844403581707    0.62030657997340
H         4.40697173042238    3.62500912388589    0.26904804335857
H         2.60382638968733    3.78401037576065    2.77062727924327
H         5.50290883323605    3.98621994321192    2.19505373063309
H         4.69897523249335    4.17484988270511    3.73556217552396
H         3.02250649495978   -0.23298731716180    0.67707277482086
H         0.18636847459079    1.40631177292089   -1.15681512706372
H        -0.29275225521142   -0.16044779961220   -1.69409914665749
H         1.12278041611373    0.58000492598446   -2.48465773458138
H         1.17779591879060   -1.44522274617693    1.09968939906592
