39
 energy: -52.256998741930 gnorm: 0.123765316213 xtb: 6.4.1 (79825abcba525fcdf90b791dcacef51065a7a4e7)
C         3.80019062235629    1.78834756717526    3.97729148001599
C         3.71590856204972    2.16325401308040    2.49188472997861
N         4.63080508745849    1.36138751848660    1.69812645788722
C         4.66678516702258    1.12191529257300    0.34932659805332
N         5.80945934118802    0.93628272276747   -0.24235965935080
C         5.53595410182246    0.69538346057446   -1.65797188268477
C         4.03003867065618    0.66290187361666   -1.87718228111800
C         3.42313896781598    1.14923197391295   -0.56038169851905
C         3.00362757646853    2.61816583811617   -0.85999731568989
N         2.14779135283528    3.21530753943749    0.18582669185014
C         2.71371851950157    4.10227079603013    1.19651584997575
C         3.83715317375710    3.68467038187217    2.18771649473799
N         5.17795318023385    4.06476310493622    1.68188056906415
N         2.37149761150625    0.32395727599997    0.04905172738711
C         1.42493014998550   -0.24708436722943   -0.75818435703746
C         0.73202959483740    0.59218815773091   -1.80247497912461
N         1.07564369891125   -1.47754643483776   -0.58291577554897
H         3.09296168622219    2.46198817788678    4.46848757570156
H         4.77551723790365    2.07532094755068    4.38103011573462
H         3.69712972486099    0.73585771137978    4.25918063223279
H         2.73374858675176    1.77417757339540    2.21274587759745
H         5.50132989583219    1.28958109516727    2.22159578999788
H         5.98011371563029   -0.25656993224875   -1.97312770781151
H         5.92269996901157    1.47769865989173   -2.31482045694669
H         3.62801118172809   -0.33242440430891   -2.10136248568594
H         3.75708563614430    1.34191119042085   -2.69503261664981
H         2.43566605098548    2.68573349783148   -1.79470110727967
H         3.94888750715106    3.07913432373435   -1.17349116952627
H         1.45992234267170    2.53907938123205    0.51326496648766
H         1.88612058334751    4.37476114974283    1.86545554856027
H         3.21476345459684    4.94699204172239    0.70678026953287
H         3.74772518424822    4.34307222831392    3.06250213253655
H         5.42569347729343    3.64992205225847    0.78026573707363
H         5.90884033710115    4.12368349282429    2.38808000988731
H         2.75952716686321   -0.40662859208362    0.63724641100330
H         1.41238737677763    0.89899106408197   -2.59250326621343
H         0.59997551742929    1.55374934272063   -1.29802034695077
H        -0.15853583080089    0.06010563913350   -2.15203168069120
H         1.42064191392175   -1.95532269613604    0.25118911133599
