39
 energy: -52.263090643339 gnorm: 0.115091258525 xtb: 6.4.1 (79825abcba525fcdf90b791dcacef51065a7a4e7)
C         3.81499728507098    1.46071019274511    3.69183830194654
C         3.62311628001426    1.98262376109226    2.26184548423151
N         4.75631147213052    1.39673049620278    1.56709697334189
C         4.80985333340262    1.30467040895276    0.20087561645023
N         5.92444156696860    1.26389941004643   -0.46717164386114
C         5.67985137662800    0.83414440607717   -1.84277398902577
C         4.26811001475019    0.26535357066194   -1.86155820167473
C         3.60255856475849    1.03058188611280   -0.71688582284171
C         3.00733472682923    2.38973520337284   -1.18798754685789
N         2.49266139025389    3.25684349232510   -0.10816521213876
C         3.42011096367305    4.06945118817617    0.67156293669565
C         3.47115098660836    3.52562886198012    2.12780002747166
N         4.62514935781949    4.11154112712743    2.85104253157028
N         2.53044615984659    0.25962429372049   -0.07296324610633
C         1.22917791969387    0.00372565676497   -0.41196971017370
C         0.42127269299189    0.64952326292926   -1.50981623323066
N         0.48647058386674   -0.73211163619293    0.34545108033297
H         2.91475295759518    1.19343570488462    4.25162624934594
H         4.28359522109024    2.16032923191049    4.39010028131063
H         4.40374871076235    0.53863369773910    3.66077954485211
H         2.68405840598708    1.61924217671570    1.83750913845802
H         5.63958571549290    1.49956043152560    2.06332511484675
H         6.49393212193920    0.18899765221884   -2.19473197113402
H         5.74016660047059    1.67466694954187   -2.53770090189647
H         4.29472078427625   -0.79201750352930   -1.57204906124228
H         3.73695610089437    0.37818660820063   -2.81527744700429
H         2.25872138642943    2.22561015957940   -1.97122307225125
H         3.83557549115055    2.99154661219634   -1.58311656362443
H         1.50736653178622    3.27328298385793    0.14988110584730
H         3.16334199601541    5.13675223574487    0.71141050774863
H         4.45652789806343    3.95452057169046    0.32940530547863
H         2.60727959897995    3.85910035605376    2.71878502841782
H         5.07880513612045    4.85564043184491    2.31542109391977
H         5.38856975981751    3.43869775982207    2.88030680900619
H         2.98541892675428   -0.45957518775473    0.48025234856804
H        -0.58993173972030    0.25195499986013   -1.53357521854624
H         0.94763691324612    0.50735724264022   -2.45810004176672
H         0.25423245090798    1.71364695602240   -1.31450422620762
H         1.06423962062554   -1.26649039678286    0.99633291488321
