39
 energy: -52.259189363278 gnorm: 0.100420398571 xtb: 6.4.1 (79825abcba525fcdf90b791dcacef51065a7a4e7)
C         4.17247605699772    1.93584713992511    3.97636184742483
C         3.76472331265027    2.22373440245688    2.52551720825686
N         4.69738277854503    1.47386191559077    1.70216108284328
C         4.69820246019446    1.13457341752773    0.37446186067173
N         5.78854564171933    0.64989521277711   -0.14176981143743
C         5.52364366225370    0.18391220267901   -1.50172654448483
C         4.20895903349145    0.80601563639446   -1.95059310056803
C         3.53548011015956    1.19885416803526   -0.63495181375234
C         3.02250826961518    2.66420747672150   -0.74951869266135
N         2.06993535587165    3.14858495743656    0.27066021531364
C         2.51726425901800    4.09148840450556    1.29012081100558
C         3.75645030998219    3.73653050918856    2.16040644754059
N         5.07085124295735    4.13516147186117    1.60225890632917
N         2.49631352272006    0.25716698681027   -0.19700777339908
C         1.31047004065291   -0.14190951919208   -0.75218497727968
C         1.01971309333042    0.25909339716816   -2.17685668677470
N         0.39369858092859   -0.87698912306326   -0.21744669582474
H         3.68493843810327    2.66990448680857    4.62343597756467
H         5.26568964906320    1.96060839026748    4.00622053918706
H         3.81018304655664    0.94576977740604    4.27014499871749
H         2.72134576190792    1.92639470993348    2.39555726969783
H         5.66077715935905    1.33273730370954    2.00039734727901
H         5.34377732916394   -0.89424906423243   -1.59135134371044
H         6.40031625473951    0.51359171298434   -2.06368390469038
H         3.69304525967580    0.11193064408226   -2.62486029946856
H         4.34720000429167    1.80266592077724   -2.38878693313405
H         2.47641365632921    2.62309389773170   -1.69868001398183
H         3.81127396536485    3.41740859017691   -0.87127019014427
H         1.61819726831886    2.34634740095164    0.70656356413794
H         1.62914420152603    4.24412338599688    1.91828877036188
H         2.74738329671694    5.00922507029430    0.73402226508120
H         3.70185102475917    4.33604294995306    3.07928839572352
H         5.34498483317886    3.88408365023344    0.64926973322740
H         5.81222491893414    3.64376159278667    2.09751291713750
H         2.45356036145634    0.24354545073448    0.81703474837797
H         0.99863840363256   -0.60779829740012   -2.83200099921269
H         1.63072024945818    1.09753651693465   -2.52354970150099
H        -0.00537651565327    0.64294628115947   -2.16083404453747
H         0.50159077004817   -1.34448511020529    0.68412507240940
