39
 energy: -52.277278749841 gnorm: 0.104202983949 xtb: 6.4.1 (79825abcba525fcdf90b791dcacef51065a7a4e7)
C         3.51772931524055    1.57837738560767    3.65409378796954
C         3.53420668096196    2.10075813550570    2.21154798157448
N         4.63110517429789    1.43987416234533    1.52589221951511
C         4.78153906841898    1.16153195383670    0.19255135623732
N         5.89297920530180    0.87117804856637   -0.41626042982270
C         5.58403015301269    0.67386810242135   -1.83132749980843
C         4.11181058966304    0.30662453024908   -1.95212178160981
C         3.54874752450448    1.01807467054369   -0.72102200850400
C         3.09610860959810    2.46166292707722   -1.08803283693505
N         2.52781745143901    3.43045858822959   -0.12820898964748
C         3.49397950508074    4.14957445521290    0.69512157359816
C         3.67179128908311    3.64996630837772    2.15722585801209
N         4.93461814468523    4.06766335272804    2.81211718414909
N         2.55558665235144    0.27095086148973    0.06247938975785
C         1.32461170866674   -0.12628747869142   -0.38541675764335
C         0.61900408060128    0.43211290831484   -1.59592875864669
N         0.59000981776100   -0.97514188281118    0.25220636232489
H         2.85268220906947    2.29925670839337    4.13708799186678
H         4.50793726117883    1.73392623427007    4.09217300469228
H         3.16532261044747    0.54476503061807    3.72670896556147
H         2.57968595677943    1.82843789472695    1.75474488068257
H         5.45997162955132    1.45645249465931    2.11724263293743
H         6.25165688750944   -0.11608569692692   -2.19610655449308
H         5.83345943491017    1.60269904164852   -2.34910892953809
H         3.96168897613424   -0.75522052280890   -1.72298022705914
H         3.66183948762950    0.61030168783164   -2.90592593630225
H         2.38521423524360    2.42705272937848   -1.92124839965513
H         3.93329538445756    3.07632822315270   -1.44242182283483
H         1.74578769065297    3.02222249745997    0.38114046708295
H         3.23341052587061    5.21622800401147    0.66344078420378
H         4.44946438543179    4.08204441336045    0.15946376442527
H         2.78510995556946    4.06921058780379    2.65196895385864
H         4.73964153321487    4.82219026600395    3.47472636186642
H         5.52437032941709    4.48367951419396    2.09412817406077
H         2.89522723884610   -0.13784932796859    0.92724657453284
H        -0.32274266936990   -0.09191067567541   -1.73618483183538
H         1.13726691754017    0.49105455324530   -2.55740791430781
H         0.40405016967475    1.48112193020404   -1.36836919824008
H         1.04830268507251   -1.29171660208048    1.10822796274919
