39
 energy: -52.258695545908 gnorm: 0.117933435994 xtb: 6.4.1 (79825abcba525fcdf90b791dcacef51065a7a4e7)
C         3.76878512288306    1.45291955986714    3.70036854337925
C         3.65529011320244    2.01120403593015    2.27575319471425
N         4.78464609443209    1.42918413655959    1.57156168342655
C         4.84425065427566    1.29330927715731    0.20925189732775
N         5.96968929570819    1.05107838066820   -0.39487428077316
C         5.78979198729638    0.75222520792263   -1.81442325311472
C         4.28767675776462    0.70095535131868   -2.05506984123277
C         3.63704838438080    1.08992455689757   -0.72684031428338
C         3.00956462243030    2.49321266029341   -0.97295545082049
N         2.17497281056050    3.07889633299433    0.09625587563397
C         2.73684475198160    4.05954687370088    1.01880365680442
C         3.53755148905873    3.56287469495003    2.25620405504497
N         4.83234115060936    4.28505255801754    2.24820340675902
N         2.66504807546148    0.10426762337797   -0.23477044313657
C         1.32618785873418   -0.07505306230614   -0.45614339496827
C         0.50019001564111    0.61697305079945   -1.51153898323963
N         0.67268687227942   -0.86429257245390    0.32921922356092
H         2.88907744891631    1.62343377092725    4.32668903865828
H         4.59484402809447    1.95432542033096    4.21304726450928
H         4.06285668081103    0.40146046529651    3.62438404081048
H         2.78763015289497    1.44931101878906    1.92166331753340
H         5.73758230322278    1.51916512460538    1.91913293316799
H         6.27542810399922   -0.21409099315602   -1.99665053527371
H         6.40645279456006    1.28827742749768   -2.53927975812495
H         4.05240020414338   -0.28721136456897   -2.46826319724679
H         3.96430665925839    1.49781459519819   -2.73689336427895
H         2.37725802045233    2.47755398563888   -1.86780741147152
H         3.81615422995063    3.14234335977215   -1.33672628653431
H         1.64273563076517    2.36590369451624    0.59226919221946
H         1.88697479757401    4.62531746848353    1.42411138841718
H         3.36096535649404    4.76270618011950    0.45269287636403
H         2.98600726582231    3.93139745177799    3.13183538935526
H         5.14646038826800    4.54664919809690    1.31050731160884
H         5.57656195673446    3.89125568562420    2.82043126234919
H         3.14234594837895   -0.62839020445206    0.28068553242653
H         0.95822992862334    0.45844257151992   -2.48428095795677
H         0.49757810720443    1.64981340373116   -1.15133536348562
H        -0.48194988689334    0.14089737943464   -1.42691252378789
H         1.23900134995054   -1.32632947033434    1.04254572810107
