39
 energy: -52.267087010891 gnorm: 0.112271205081 xtb: 6.4.1 (79825abcba525fcdf90b791dcacef51065a7a4e7)
C         3.99343473266747    1.36680891077443    3.68980740274818
C         3.68140097184600    1.95967435099870    2.30950415661724
N         4.77210621822862    1.51433373890426    1.45973268849408
C         4.78904037588194    1.27468376637953    0.11059084574366
N         5.90651134251920    1.25609098598113   -0.55361492313040
C         5.60562931363066    0.74828782662922   -1.89092621745228
C         4.14053669347440    0.34500295979164   -1.97898568700075
C         3.54719632480686    1.09159688009702   -0.78343029323593
C         3.00614624886153    2.51799791564932   -1.09354465946891
N         2.46562501095215    3.12021631156413    0.14255870395231
C         3.35381295009162    4.00768351975035    0.88552177199168
C         3.55819242331651    3.51063674277639    2.34502436372615
N         4.59444236960268    4.44055799695311    2.85445310622463
N         2.49025753793499    0.29936192072335   -0.14024983815448
C         1.22352399788011   -0.06647834286085   -0.50802095334773
C         0.53229176900864    0.30936228859715   -1.79486757824086
N         0.46009396962243   -0.67057583598647    0.33991641711200
H         3.27861123690115    1.57897558926080    4.48933896372079
H         4.95550067004926    1.79627363980605    3.98410283207318
H         4.05195437757215    0.28806818297064    3.51455945112914
H         2.69548993149227    1.64138366985836    1.96221802395295
H         5.67882836470185    1.72699742499284    1.87158078945850
H         6.20032204908961   -0.14771632716641   -2.10617799532010
H         5.99810941835774    1.43311684824866   -2.64591500182413
H         4.08447660092313   -0.72932358657414   -1.76629576365010
H         3.54260584643525    0.62797897765172   -2.85467938751147
H         2.25544959004923    2.50371614287632   -1.89170969005224
H         3.94328765020553    2.95515496257103   -1.46089517347329
H         1.71975136365105    3.75564148969690   -0.13595786757275
H         2.90889948343853    5.01101456800229    0.93056041008374
H         4.37734681911782    4.02184851527056    0.48977092917675
H         2.63529321800084    3.70921813577501    2.90677410540175
H         5.43244818074262    4.19397479848222    2.32217437142217
H         4.73867282158167    4.35588122229288    3.85865065794538
H         2.77021680286319   -0.14742158220979    0.72710413817611
H         1.16149532649856    0.15001725302660   -2.66657364166436
H         0.41185358362180    1.38477352062837   -1.63518667964918
H        -0.43418666827604   -0.20408506388781   -1.82131963549870
H         0.93440056029706   -1.02130267301607    1.17361230007618
