39
 energy: -52.264375543671 gnorm: 0.120327887290 xtb: 6.4.1 (79825abcba525fcdf90b791dcacef51065a7a4e7)
C         4.08645951349024    1.54189938204333    3.67475827798931
C         3.81420146410461    2.00091416810338    2.23626165333577
N         4.96190627400829    1.64162928227147    1.42154341222551
C         4.84597866998102    1.29633348791091    0.10047028091763
N         5.93548711204953    1.10760079335989   -0.58334818764513
C         5.63611324983927    0.50921912344515   -1.88300591642424
C         4.12396706189786    0.39922751348639   -2.01793290822435
C         3.58273719924620    1.06266373580499   -0.75075865072689
C         3.11095357341788    2.49915926974044   -1.12146987683078
N         2.48379554578721    3.34309687890319   -0.08357593263391
C         3.41624282682100    4.09089769070699    0.75296814496292
C         3.35982868952689    3.48850352011972    2.18576715242824
N         4.16371973991962    4.36037432750973    3.07553432542478
N         2.55053417139171    0.21686820412135   -0.13624766927537
C         1.24907288959041   -0.09775298913576   -0.42071309389702
C         0.46808622122404    0.51797186664409   -1.55472153355394
N         0.43575008676729   -0.77132534673980    0.32195996012664
H         3.16519337957761    1.76925526733043    4.21772794886451
H         4.97807586447134    1.88180030200544    4.20964916946817
H         4.10357005685743    0.45213459768241    3.77444726978083
H         2.97485799634265    1.48686386380000    1.76171762027971
H         5.86303276655347    2.07470035877240    1.61496070748306
H         6.27937628080926   -0.37302142210809   -1.98635247509869
H         5.95181180304006    1.10036326849873   -2.74551534470302
H         3.75553249333873   -0.63187135702728   -2.07833451004727
H         3.82405610085588    0.93072117203066   -2.93007548906305
H         2.38934932188317    2.27195489315662   -1.91423866143220
H         3.94680631988543    3.08114969985039   -1.53003322154111
H         1.76116798459653    2.82887920901589    0.41747668534453
H         3.19294207971109    5.16399275561761    0.82544863817911
H         4.46085783779538    4.01038134292726    0.42626100584604
H         2.34350179898070    3.47004346384915    2.60227545766901
H         5.14010795319107    4.42180151205002    2.77675276019742
H         4.26373301697766    3.97334540907600    4.01179885324660
H         2.91499556178413   -0.17240841358454    0.72742311236595
H         0.97803320624745    0.25081293837485   -2.47653474846097
H         0.36999650541767    1.59381603594993   -1.38311038084292
H        -0.47484690716104   -0.03385575104146   -1.62380020851556
H         0.92338159350224   -1.18247069663762    1.11958136054008
