39
 energy: -52.261545581428 gnorm: 0.112433303286 xtb: 6.4.1 (79825abcba525fcdf90b791dcacef51065a7a4e7)
C         3.59322335067603    1.23238786466861    3.55293785722100
C         3.64232523086103    2.03050262452455    2.24347485138949
N         4.73122167209705    1.54057764779743    1.41621685222822
C         4.76495183515207    1.38682995585917    0.05492095510022
N         5.85690760906049    1.13282847791806   -0.60338914480498
C         5.43354633033679    0.78559242804073   -1.95874441023134
C         3.92567789864398    0.58568418054701   -2.01583229815608
C         3.44923942286214    1.28274445547576   -0.74071609433203
C         2.95660346823590    2.69108477362024   -1.18502832721898
N         2.57473221887977    3.65653682924601   -0.13390589038500
C         3.63721637533160    4.05710323988272    0.78214210389046
C         3.59568581117053    3.58592506131334    2.26377653817984
N         4.55500981134690    4.32713258284256    3.11723654950156
N         2.53624821963574    0.49882068505987    0.10210507604711
C         1.49826998345324   -0.28595262948578   -0.32267792000343
C         0.71336607621118    0.04093144461689   -1.56851301461162
N         0.93045999269657   -1.20484617597613    0.38441715176414
H         2.74402845774500    1.50416090972469    4.18558743561436
H         4.52370731353164    1.32098543353104    4.12124295009977
H         3.39491643534536    0.18888235819071    3.28914139762687
H         2.76302919861633    1.83806638103659    1.62400412679560
H         5.69454872593225    1.76416092253318    1.65911861556157
H         6.12126745001834   -0.02538005781043   -2.22740685316859
H         5.63243095779516    1.61246821515619   -2.64413541411311
H         3.63621989842999   -0.46616127311474   -1.90451080780323
H         3.47328991603296    1.00459917226699   -2.92373731550263
H         2.15214645026566    2.44258310494042   -1.88639319921145
H         3.76394995296787    3.12680459431653   -1.78721315540545
H         1.74804389611974    3.29172720814735    0.33637539022395
H         3.62695628769258    5.15552868916947    0.77970887861652
H         4.62056809182895    3.70940195381469    0.44072715330862
H         2.59971704309447    3.97492237529036    2.51570426444023
H         5.53011495308389    4.01898451241757    3.09289752442922
H         4.32520017084049    4.43197688529921    4.10343150970036
H         3.03944693936058   -0.02699761699752    0.80963725482334
H         1.15093042561282   -0.09542398789436   -2.55395913320650
H         0.45507072712747    1.10361913942669   -1.54635368790103
H        -0.13122223061423   -0.65493773310405   -1.59758442622638
H         1.40512845468050   -1.28810670378244    1.28485172528612
