39
 energy: -52.264993289667 gnorm: 0.100713359711 xtb: 6.4.1 (79825abcba525fcdf90b791dcacef51065a7a4e7)
C         3.54437172429600    1.38417291228601    3.58079073763808
C         3.55227277250314    2.01324994920446    2.18140115009250
N         4.64608305235208    1.38197701027800    1.46366071936162
C         4.75251789151391    1.31352516137558    0.09915033447843
N         5.89191813300608    1.17279090586909   -0.51094582473266
C         5.58717344336443    0.96563022108151   -1.92551666843155
C         4.11402862439805    0.58935580423929   -1.99729024346842
C         3.47492408114761    1.21566009695169   -0.75709014154273
C         2.89666048609615    2.60192201461569   -1.16625404447976
N         2.58795915693699    3.56239634815133   -0.08691431632979
C         3.67107482732005    4.11873919753176    0.71671062446332
C         3.72661305104020    3.55964060476949    2.16698595948498
N         4.82843096902605    4.14298190979991    2.96935453981190
N         2.48854715749551    0.35424436319686   -0.09116190794951
C         1.28111702898906   -0.24229133081931   -0.33604185826268
C         0.42270891424368    0.16258547216669   -1.50832283286947
N         0.86386433345806   -1.07481563227250    0.55813957824735
H         2.70569285465791    1.79937309379394    4.14600274608465
H         4.44692332747450    1.43564158201290    4.19672271400456
H         3.34537216027267    0.31124059002824    3.49692561983996
H         2.55619114777531    1.84097784760177    1.76657476876528
H         5.49445266659831    1.53410497666147    2.00598520115423
H         6.18757242740599    0.13517556597494   -2.31626255377944
H         5.69015789591618    1.89886774932565   -2.48363978079528
H         4.08988134156115   -0.50535221227558   -2.05719455960196
H         3.67403579625745    0.97687238100682   -2.92501509194807
H         1.94949601127077    2.43135980220226   -1.69028156937618
H         3.60987960785360    3.12394065542345   -1.81671672176655
H         1.83112127671887    3.09572783319050    0.41015816259045
H         3.63431680350122    5.21322906702554    0.80267825139818
H         4.67087469358385    3.99459435932801    0.28147592950601
H         2.82400882949771    3.92412293850213    2.67610140498611
H         5.67772435379194    4.40291487795006    2.46189689388558
H         5.06079028042226    3.40728910786827    3.63354619666379
H         2.90990179292225    0.00985135404246    0.76566324421720
H         0.93594455127303    0.90129417872203   -2.11828844166944
H        -0.51979886518212    0.62514244113974   -1.20134923427575
H         0.01300782182121   -0.73389968211196   -1.98462929274960
H         1.61438620212956   -1.31859821643460    1.20645420774052
