39
 energy: -52.262236485041 gnorm: 0.106127021021 xtb: 6.4.1 (79825abcba525fcdf90b791dcacef51065a7a4e7)
C         3.64285618301680    1.57714478428907    3.74250071799647
C         3.59167797583490    2.08298784532277    2.29488367063552
N         4.64976444106176    1.44618928028685    1.53001874874834
C         4.73022991865596    1.29127061947504    0.17081747412147
N         5.83960136703153    0.78731752735712   -0.28259473809784
C         5.67940049164139    0.52897242051035   -1.71241606508700
C         4.19443567134655    0.48142923899490   -2.04333699939962
C         3.55763004417866    1.13711321167789   -0.81721910468867
C         2.99959249695803    2.53396376299645   -1.21837817035938
N         2.35049635302682    3.34721451668223   -0.16953161672416
C         3.24329187197469    4.09989224463802    0.70503247389433
C         3.48619323948695    3.63045065233282    2.16776887007179
N         4.67189947326167    4.39437378661553    2.62450434658283
N         2.72439068049553    0.14334627078779   -0.12687400204919
C         1.37871495695875   -0.06517889705752   -0.26609562417695
C         0.60983796496876    0.70587724246852   -1.30980680065504
N         0.71616652855965   -1.05052874782478    0.24073000707562
H         2.94311078174007    2.08913590844995    4.40842827007376
H         4.66241667612983    1.72565079038215    4.11000987786354
H         3.43797556626045    0.50321909419440    3.79275496033818
H         2.65386784822367    1.70968882126332    1.87643749846826
H         5.58731858674182    1.41775102823290    1.92646955673220
H         6.27979104378179   -0.29868833740257   -2.10905831078769
H         6.14016412660766    1.39931837411943   -2.18489281998131
H         3.77185744950918   -0.53044244667797   -2.05336716328044
H         3.95239757359997    1.00631584955294   -2.97626131625744
H         2.46184543395888    2.45655447560372   -2.17003605943783
H         3.81849729251284    3.14798287461483   -1.61418384866872
H         1.72407292657291    2.67869272446129    0.27581816497573
H         2.88513497259736    5.13568932259866    0.77917896883038
H         4.25735571654814    3.98658374136264    0.30095741470321
H         2.69147079986369    4.03994641467989    2.80610243174551
H         5.39935532117459    4.30535386644295    1.91087902048461
H         5.08220042287053    3.97786470224972    3.45790617898184
H         3.21983223277029   -0.65657245401849    0.25386647263885
H         1.06781134247597    0.45161132074356   -2.26205080876912
H         0.59677995449000    1.79514720537913   -1.21064487159157
H        -0.44822644287784    0.42510546107484   -1.31848893520116
H         1.18675471678927   -1.57649267472604    0.97892617638253
