39
 energy: -52.255177917022 gnorm: 0.143318352470 xtb: 6.4.1 (79825abcba525fcdf90b791dcacef51065a7a4e7)
C         4.04366366986784    1.54840910330887    3.72450618279131
C         3.76512890205028    2.12777089140613    2.33136231036301
N         4.78617982296334    1.52677178367171    1.49092620645053
C         4.62174775808491    1.15699122599908    0.18167945860072
N         5.71941360393869    0.77416179828654   -0.40040961822301
C         5.41895927890342    0.65277324436180   -1.82581747845644
C         3.90750813922556    0.60076435413882   -1.99815457246298
C         3.38295802012945    1.27157001311837   -0.72784951675340
C         2.78167635174956    2.69227626181012   -0.93660800823615
N         2.38444913854809    3.55209736869786    0.19727907078754
C         3.47939062765143    4.27123456603214    0.83947436846902
C         3.60741956510600    3.67480289395796    2.27015676756893
N         4.70843948206250    4.42560664121611    2.91987517953505
N         2.41333430349442    0.37592790158870   -0.08279754850405
C         1.44043041342176   -0.39126691911394   -0.66467273681071
C         0.73758347318605    0.08021502637225   -1.91316919533048
N         0.77437806280304   -1.29420845090117   -0.02605872307831
H         3.21527900681715    1.96834822046039    4.30128000280868
H         5.03129849783863    1.83895896857207    4.09434241817136
H         3.92810827585288    0.47146646647857    3.88153947235118
H         2.75971827141170    1.84880958095936    2.00691315571913
H         5.76619337264806    1.63620552684275    1.74506683079304
H         5.97940948965182   -0.22483376445481   -2.17008150771470
H         5.85949137275897    1.49502728222692   -2.36394302258743
H         3.56724084897414   -0.44146938104544   -1.97525735367664
H         3.67645695409370    1.06565618662480   -2.96507086283484
H         1.89066757211412    2.59600466097755   -1.56720454283676
H         3.53576203810708    3.23696217597142   -1.51880961631491
H         1.87441023141567    3.02493026999858    0.90411659871805
H         3.19892377218074    5.31568533865358    1.03211545603152
H         4.34364544419407    3.94746509484731    0.24560746606868
H         2.73516092592779    3.90280948298277    2.89778575517066
H         5.45852998240797    4.69472187608803    2.27853369828842
H         5.14375115826236    3.83169329831496    3.62283747589819
H         2.82226648726644   -0.11338700952037    0.70691190235408
H         1.45277024674773    0.08656052832583   -2.73147662062049
H         0.27025294933546    1.06313823566967   -1.80373058187017
H        -0.05502746439352   -0.62973423067274   -2.17036255845660
H         1.28117778005634   -1.49364633174087    0.83788772721462
