39
 energy: -52.260703458674 gnorm: 0.110714828362 xtb: 6.4.1 (79825abcba525fcdf90b791dcacef51065a7a4e7)
C         3.65981783841652    1.63590827491627    3.81820400555744
C         3.68456052523460    2.07321961653968    2.34774892777721
N         4.72255020015205    1.39385183263177    1.59202767659038
C         4.75006142915065    1.19087682123209    0.23705650085046
N         5.86644354367059    0.87224304804634   -0.34811001820501
C         5.51204744982444    0.71449980014740   -1.75747726034431
C         4.00357287699731    0.53769171085016   -1.85813957224625
C         3.46159049917640    1.23112038661087   -0.60745186123749
C         3.05374784782620    2.69635624720739   -0.93952751092731
N         2.29554158129305    3.33737480291832    0.15454752100172
C         2.94160877439539    4.25021503196281    1.09145192403438
C         3.85834813317724    3.60976334540276    2.17237044592127
N         5.25629402371122    4.09811844005478    2.09928335121218
N         2.38504871246541    0.41743363410505   -0.02658305420832
C         1.21236336451116   -0.05388690780865   -0.55229645050240
C         1.09134255866434   -0.19006371645128   -2.04957473456154
N         0.26378343559951   -0.56605599926931    0.15808085014716
H         2.61812916477249    1.68645144328287    4.14617983364404
H         4.26445772811731    2.31541868503594    4.42590197792197
H         4.08938511250841    0.66045570590375    4.06676423676208
H         2.72081583777890    1.73323824477997    1.96103708689071
H         5.69416067329441    1.46586076567041    1.88830046611248
H         5.98910301228760   -0.08570034295379   -2.33619475635243
H         5.84378372634311    1.64374783885919   -2.22597338289461
H         3.75162760784014   -0.52946930833593   -1.84238505261762
H         3.69864117968542    0.93987574667240   -2.83266552647256
H         2.38795208071495    2.71920834479248   -1.80959109127108
H         3.95998877892082    3.25637267006031   -1.20295805568145
H         1.65720544783780    2.68074453063739    0.60067282965053
H         2.11765107210630    4.83757418856852    1.51894763678725
H         3.59235188550959    4.88515762338516    0.47677944090939
H         3.35766518159629    3.92407059407789    3.09825803230822
H         5.69069206915750    3.55368372150904    1.35010590870708
H         5.82798603046159    3.83093347400472    2.89813612018923
H         2.51773157118596    0.28520015685564    0.97101665071892
H         2.01334235886304   -0.55700490860492   -2.49277892103398
H         0.90886033886440    0.80813024405927   -2.45801287667037
H         0.35220763489851   -0.96704156854635   -2.26955984109604
H         0.54170850181988   -0.67049576976788    1.13525784295604
