39
 energy: -52.262624650795 gnorm: 0.121503892934 xtb: 6.4.1 (79825abcba525fcdf90b791dcacef51065a7a4e7)
C         3.94105419439038    1.81531193514405    3.95394959358330
C         3.70657974822421    2.06711986663336    2.45872183927974
N         4.60758329810924    1.29488022687148    1.62091739857463
C         4.61768353135091    1.16217699068654    0.25702941785496
N         5.78962534711748    1.07046186382937   -0.29830567976118
C         5.59728821514518    0.75421232547216   -1.71244435770581
C         4.12092780246724    0.42780995480373   -1.88768979137562
C         3.41897941999853    1.10510556630910   -0.70983279924820
C         2.82656618319836    2.47904926887735   -1.13977615023528
N         2.47257444079746    3.25095502961143    0.06920402809119
C         3.51885892518854    4.02370517469735    0.72997325004631
C         3.77398986965906    3.60104550646817    2.20484316841390
N         5.06917625860843    4.10851764797282    2.71772656977127
N         2.22689545990653    0.53871141259527   -0.06441011575940
C         1.17476027152634   -0.12795535274095   -0.63210329402256
C         0.80670664516486   -0.04524438466077   -2.09248949424361
N         0.25003016533517   -0.66382631407163    0.09210215265598
H         3.15716853787160    2.24745235205721    4.58165651764659
H         4.87523840100171    2.21965337173805    4.35448484229758
H         4.05748619538428    0.75503696212492    4.19905878566990
H         2.66655924204204    1.81667119559405    2.23607861406800
H         5.57518870134025    1.22127909203734    1.92964449047539
H         6.25454221896308   -0.08758050686023   -1.96188016408113
H         5.97198130072988    1.67555322476330   -2.16385938671867
H         4.03514668225181   -0.66160802936751   -1.79621673600790
H         3.73519965668224    0.81409902121114   -2.83975634900925
H         1.83380544391992    2.23059141167483   -1.53158181595709
H         3.29568522318113    3.13073651938998   -1.88778532322564
H         1.88038220236880    2.74067736131356    0.72234197944279
H         3.40561663397083    5.11221210357856    0.63521826144088
H         4.43785186801967    3.81986390726501    0.16575550469766
H         2.97480446368938    4.01673261368784    2.83353005517751
H         4.98378121826623    5.09285425327221    2.45283640085801
H         5.83308510573612    3.66396614869871    2.21255081575936
H         2.37386814370221    0.25146907689274    0.89797571554629
H         0.15797049866844   -0.83121522749119   -2.47004832067629
H         1.73011838494143    0.05742759109830   -2.66979520643784
H         0.36905878673928    0.94012763858967   -2.28200148721830
H         0.47601547419711   -0.67198128333143    1.08803840687056
