39
 energy: -52.273471700099 gnorm: 0.111012884764 xtb: 6.4.1 (79825abcba525fcdf90b791dcacef51065a7a4e7)
C         3.61887110838330    1.64534403213792    3.83590299001727
C         3.60370957310059    2.14368980670099    2.38486433420117
N         4.57981833070415    1.35238004835142    1.65608567030434
C         4.73061173589381    1.25990262230489    0.29718467484999
N         5.87715882676130    1.01767639111002   -0.26585404850962
C         5.60104125951009    0.73001996602821   -1.67219981670272
C         4.10155094123141    0.68354949046568   -1.92960770528195
C         3.50099179927820    1.22393291943351   -0.63109992444762
C         3.01909463544639    2.69121134592794   -0.82704673587632
N         2.21611281988826    3.31538587588071    0.24459129314287
C         2.82890658781741    4.24160692339265    1.19067180374322
C         3.81371987480487    3.68027937549087    2.25557952306405
N         5.17848944518765    4.04789443782305    1.80797665284775
N         2.52368779789772    0.27681961845283   -0.07766497886962
C         1.40460436325221   -0.27715355523761   -0.63844529961901
C         0.72501508073712    0.25453142334383   -1.87557986051107
N         0.85726815923266   -1.31340456745989   -0.09681451920812
H         2.73952641398685    1.99657686493112    4.38237024114285
H         4.56201179598249    2.04057521934567    4.22435964881030
H         3.67263168526742    0.55264101202904    3.86636383194575
H         2.61743054036209    1.90788858446151    1.97793846559729
H         5.54126362344224    1.44721444000826    1.97798497765462
H         6.17148561482460   -0.14022837905986   -2.01872149709731
H         6.07577206718663    1.56338352631712   -2.19486158906779
H         3.82407045344795   -0.33368170684588   -2.23094228773906
H         3.78853981511882    1.30432509359608   -2.77878252205738
H         2.46346156996418    2.81039689544468   -1.76400114114122
H         3.89557823660760    3.34659590268962   -0.90788148585375
H         1.36993926156466    2.80026055289230    0.48186820283958
H         1.94645363978664    4.65441283301914    1.69813385975205
H         3.44065075149364    4.94364570528145    0.60985205329674
H         3.63278434760314    4.17930202983089    3.21733781377269
H         5.47298002137626    3.77870195497901    0.86606987863694
H         5.88662202307904    3.78241926366013    2.48948709896029
H         2.99012623992388   -0.37944792251998    0.54043187167252
H         1.43382115621130    0.25872505089516   -2.69943408581810
H         0.31567850170410    1.23265907775399   -1.60683738217674
H        -0.09978049075268   -0.43277299263779   -2.08943349197791
H         1.14718602883033   -1.64419842177608    0.82489472811081
