39
 energy: -52.271329001563 gnorm: 0.108776857447 xtb: 6.4.1 (79825abcba525fcdf90b791dcacef51065a7a4e7)
C         3.72121800905279    1.35870177429169    3.60295066127915
C         3.56889833772578    1.99100177088464    2.21331509945900
N         4.69501506199804    1.50370868162968    1.43582918623071
C         4.71805035513959    1.44860493576645    0.06676542808799
N         5.77405106422746    1.54926915824627   -0.68488979702538
C         5.40318065339793    1.06956999201080   -2.01497979062662
C         3.96131103627377    0.58458324401217   -1.96312037236793
C         3.39374799039533    1.18326998713051   -0.67538811991359
C         2.82775961762512    2.57212350609084   -1.09284358928395
N         2.65553492900621    3.63312131781138   -0.07923419354089
C         3.75654490971406    4.03259158390768    0.79063390019467
C         3.51990427120203    3.54607925953459    2.24881127359935
N         4.61270019608221    4.16171746624774    3.03929961156465
N         2.53816080764132    0.26872499285663    0.09273618857723
C         1.39800665819575   -0.35304999058976   -0.33987557763768
C         0.75299158615287    0.03874936054306   -1.64581632376826
N         0.86735413778644   -1.26006682067631    0.41011465063362
H         3.06353136255649    1.99068000619934    4.20568596221846
H         4.74961039905364    1.41251430986806    3.97191397188827
H         3.44253003778840    0.30044188926542    3.61834486846405
H         2.64597428887694    1.66893041922067    1.72503397732323
H         5.59018509478434    1.80816255916959    1.81394056998319
H         6.02409263870390    0.21863121524703   -2.32024643604558
H         5.53887896199749    1.87587222608583   -2.73920500713664
H         3.91751709727841   -0.51041088632121   -1.92278166644872
H         3.45871385080784    0.74669089967728   -2.92517720461512
H         1.91909474818306    2.44150732281710   -1.69124514404784
H         3.62053116304688    3.00541003654333   -1.71579041271280
H         1.87912220413372    3.35740610373651    0.51978878682732
H         3.62555418025740    5.11813351233146    0.89594209674753
H         4.76393963285998    3.82148154539146    0.40980667401103
H         2.56135694427484    3.98911986872728    2.55153610962433
H         5.46041441452152    4.02820679567326    2.48258319270556
H         4.68283959755138    3.79721808416175    3.98724790638565
H         2.98206559126413   -0.04939498578434    0.94833178652680
H         1.43055545925611   -0.12853130151134   -2.47893324013422
H         0.41181989633188    1.07801175329665   -1.63887288135733
H        -0.13757811141204   -0.56691577683833   -1.84193826422129
H         1.35096467784666   -1.37851840702066    1.30180683350454
