39
 energy: -52.266167624381 gnorm: 0.120074477135 xtb: 6.4.1 (79825abcba525fcdf90b791dcacef51065a7a4e7)
C         3.77663697397371    1.33908671888233    3.57024824696686
C         3.63926428563408    1.95396771127564    2.17126945255139
N         4.85995109325123    1.69003244192683    1.42942063774494
C         4.92383203256274    1.28479351311270    0.12190265983444
N         6.07220589178804    1.22443656087674   -0.48460445894214
C         5.75764942228221    0.79386577549195   -1.84565500087955
C         4.28641173254136    0.41279627260425   -1.93012535086483
C         3.64014487104059    1.04385719368234   -0.69606325343125
C         3.12301395023364    2.46881835259653   -1.05044627123132
N         2.30691174657000    3.10227503868254    0.00572206077095
C         3.01908213467241    4.09930282746481    0.79769359435957
C         3.34183797723139    3.48144368744589    2.18803637208085
N         4.45082546140960    4.32614952694812    2.69271840511904
N         2.64720751994941    0.12664043580836   -0.12054109567971
C         1.32683154232793   -0.13024274375963   -0.37416848915343
C         0.62514259545622    0.53152048729983   -1.53379535200356
N         0.58475275741870   -0.84774071493658    0.40124927228601
H         3.23924119182575    1.90621463154659    4.33497679574936
H         4.78596042507206    1.19672540324082    3.96726215882689
H         3.42679581630483    0.30913277516921    3.69117793004097
H         2.78367292866764    1.58520086815777    1.60038272655522
H         5.80034495717179    1.85048426390428    1.78565701620396
H         6.48073804279430    0.00214530091084   -2.07617128813101
H         5.91337143608583    1.67519303202722   -2.47179589087423
H         4.06743448850662   -0.65728599950756   -1.83250275381507
H         3.87798342375442    0.86831514470468   -2.84123734290876
H         2.45152275889788    2.33617542386261   -1.90620458942137
H         3.92412908676209    3.15433719260843   -1.35469145380800
H         1.41581766671028    3.49076051164501   -0.29873566915241
H         2.41872840823588    4.99061238443453    1.02527290379252
H         4.01840229757505    4.35373025154221    0.42210491273255
H         2.51557685199066    3.71914351955863    2.87179921971313
H         5.33504771917961    3.87194030880316    2.45142470158365
H         4.49227314608215    4.47894895710812    3.69836234247832
H         3.01242914804356   -0.40607532930414    0.66248041287586
H         1.02885103634875    0.06909752505424   -2.43064758207364
H         0.78278702299909    1.61153873020909   -1.46153549449046
H        -0.43601768242745    0.26256535639893   -1.53703051782685
H         1.10448180124131   -1.24290957687103    1.18658243354497
