39
 energy: -52.267459737615 gnorm: 0.135921961740 xtb: 6.4.1 (79825abcba525fcdf90b791dcacef51065a7a4e7)
C         4.17477134329495    1.55301715414373    3.71191233222282
C         3.76971833053640    1.98533934643963    2.29659571257146
N         4.87493057493890    1.63358216487662    1.42203836822872
C         4.74080411895787    1.20084387712150    0.12872854825566
N         5.87172858602981    0.84763723218567   -0.40653894918262
C         5.60253340400474    0.42789447837728   -1.78063702520321
C         4.10359778179398    0.53089941335088   -2.02450485836383
C         3.48233295876606    1.11944407344557   -0.75704551372461
C         3.00071180480888    2.56093219722126   -1.09420876716156
N         2.33473734385729    3.37225233908826   -0.05448796203538
C         3.23913562207601    4.09863688436353    0.83032795923875
C         3.45914048250435    3.50966132982210    2.25288900570761
N         4.41799584718019    4.45151430928700    2.87866412090459
N         2.52943693186703    0.23175718152758   -0.07701750463057
C         1.29151777618252   -0.17092775857035   -0.50023090633361
C         0.45415533357461    0.81500572719255   -1.27598327208213
N         0.73199195649165   -1.29731160900458   -0.20877377155856
H         3.32386923728250    1.57361979490367    4.39804583683920
H         4.92435603463135    2.16428051730731    4.22289228228998
H         4.53693892775767    0.52098382497261    3.67241803480025
H         2.85468906398111    1.54274181845650    1.89563926328234
H         5.85587108287266    1.78351291782130    1.65065650089225
H         6.10224549946260   -0.54238262830004   -1.88864803198321
H         6.23643105906357    1.03426587683720   -2.43142652862581
H         3.65001810278123   -0.43152938406819   -2.29012403570686
H         4.09443750179919    1.16119708211872   -2.92287956745312
H         2.31582906672329    2.44392802115046   -1.94159446369883
H         3.79889092673833    3.22719050012652   -1.44534497273822
H         1.51001862739078    2.90265391709237    0.31562078418611
H         2.73386824717489    5.06993160874736    0.91944081012006
H         4.22793646373960    4.23960499554661    0.37552927852292
H         2.53879656969715    3.59165622227133    2.84701374616392
H         5.36849245502676    4.28850075018031    2.53754765658392
H         4.38201036000237    4.45135512436775    3.89605800851509
H         3.06861893401461   -0.59413254618789    0.16274186554874
H         0.74493594140222    0.96082549281183   -2.31297056943343
H         0.26227126991903    1.80355409098757   -0.84882370620989
H        -0.54947877688816    0.38960368660545   -1.37678081590220
H         1.44707681730816   -1.87201869294948    0.23999153180253
