39
 energy: -52.268525657810 gnorm: 0.096035020177 xtb: 6.4.1 (79825abcba525fcdf90b791dcacef51065a7a4e7)
C         3.47614256945486    1.67084439437665    3.82797412310512
C         3.58518179560889    2.22773361352779    2.40246495557025
N         4.50096794906076    1.46383165095204    1.57308731670130
C         4.56909257400770    1.34468900915233    0.20961136467302
N         5.68378186182792    1.29441345370986   -0.45761912130241
C         5.36256891389857    1.02778263782968   -1.85852090125792
C         3.90642432098819    0.58978123652435   -1.92698431441087
C         3.30918945152678    1.22282930598280   -0.66945950992030
C         2.77661418711562    2.66083733263664   -0.93782961213268
N         2.53209425994355    3.52294841435841    0.23680062770360
C         3.73169784646410    4.11480359189633    0.81914817009070
C         3.91122404831644    3.74719742953049    2.31968485246632
N         5.24781447530935    4.14844703670281    2.82029440652655
N         2.26370619962218    0.37407769048390   -0.08207343743255
C         1.40485624901591   -0.53354353046301   -0.64091960680663
C         0.89498600031963   -0.40367783227629   -2.05449650534309
N         0.88945001667747   -1.51566704543754    0.01979727152590
H         4.03664797452025    0.74973257053429    4.00859733411030
H         2.43873194535601    1.35397431224615    3.96937131741885
H         3.83813821889581    2.42520018325018    4.53347000697703
H         2.64018861628593    2.11795579304853    1.86499502315516
H         5.42322871972927    1.35451647551484    1.99078939437102
H         6.09321066408259    0.27785734201096   -2.18500352642491
H         5.49537072531806    1.96042127100148   -2.41132136134054
H         3.92364956029183   -0.49831290979439   -1.79166363675119
H         3.43955605887464    0.85713860247592   -2.88353553758841
H         1.88264950650174    2.51574029411641   -1.55475007788504
H         3.38722254623334    3.18977489150229   -1.68057395905058
H         1.90776813136822    4.30327599026259    0.03939270255289
H         3.69599968893538    5.21006585455509    0.74314895660229
H         4.66866956060193    3.79170525586423    0.34783889949097
H         3.30002431850767    4.37760218007057    2.97980986000763
H         6.00999719724119    3.90461060236153    2.18311393269751
H         5.34241340260361    3.76416851900703    3.75825302437947
H         2.23087865167554    0.34794836651877    0.93209381633567
H         1.22811057512769   -1.25078975101155   -2.64828841925114
H         1.24013373919894    0.48810863022860   -2.58562982056716
H        -0.19031721348719   -0.32071644085758   -1.93769406582759
H         1.31814617934698   -1.49657987099188    0.94655515092361
