39
 energy: -52.266512263053 gnorm: 0.114642959136 xtb: 6.4.1 (79825abcba525fcdf90b791dcacef51065a7a4e7)
C         4.02940972208518    1.65569696999508    3.79967957878458
C         3.72831396377780    1.95751001038766    2.32579295524504
N         4.82970830603173    1.44314322452988    1.53053510002637
C         4.82195944406805    1.21966331894010    0.17853684719253
N         5.89953343613914    0.99131627154684   -0.51207756871596
C         5.60194126967271    0.65778518515535   -1.90383597343130
C         4.11317460301761    0.34084418446847   -1.90040705482328
C         3.55770924121318    1.09992965179080   -0.69456482692761
C         2.97529073228477    2.48202843508737   -1.11183889996489
N         2.36570348080599    3.37210362212483   -0.10240774276775
C         3.34332218817761    4.05470691310205    0.73829695014790
C         3.49962300656196    3.48984935266381    2.17894966828316
N         4.46746810363419    4.37191339440337    2.87416476234138
N         2.48270136213332    0.36136615863937   -0.01831118390137
C         1.29094136392841   -0.07390688423364   -0.53207579522416
C         0.51660898332219    0.62365307183097   -1.62242065278329
N         0.65274959321885   -1.01617911556642    0.07750709537303
H         3.32264032776016    2.23435483347878    4.40040426588530
H         5.09918130850466    1.77965501101236    3.99162690292661
H         3.66516322022352    0.63293841510218    3.93790900872444
H         2.80913102871971    1.45903396534693    2.00867852696667
H         5.73725187697528    1.36483412214388    1.98575164363653
H         6.19313734382420   -0.25030008351586   -2.07320116381986
H         5.80526873097085    1.51374532787092   -2.55116098148175
H         3.85991630443700   -0.72224190594787   -1.80949244798035
H         3.74440643362531    0.84288358663972   -2.80395708897819
H         2.14160192863842    2.34354441659705   -1.80940754607330
H         3.79499721397477    3.02147066514453   -1.60313315562245
H         1.83517510727379    2.68652742040444    0.43255865865136
H         3.08067539992396    5.11551259494432    0.84946182401377
H         4.28812165699018    4.10712224468822    0.18237649839446
H         2.56462618682939    3.67299273023218    2.72574006192729
H         5.30335987097328    4.67862012682323    2.37058398921517
H         4.84753179597336    4.02233776783588    3.75150949078709
H         2.80379827534521   -0.34799207218723    0.63284417144579
H        -0.48184138897244    0.19798438721242   -1.67776007072265
H         1.00292842660152    0.57876195486567   -2.60119072072385
H         0.49168989570226    1.69714234519001   -1.40932844637631
H         1.25976153858387   -1.54558332779641    0.70543429335579
