39
 energy: -52.271434097463 gnorm: 0.110518804992 xtb: 6.4.1 (79825abcba525fcdf90b791dcacef51065a7a4e7)
C         3.66085769437582    1.25894868462271    3.54054690937222
C         3.72820740448116    2.03164176655890    2.21672632282637
N         4.85241761414158    1.56964345281683    1.42124741115632
C         4.79288870283978    1.27233472247047    0.08484686882594
N         5.82382072834242    1.18176032012057   -0.70206595047300
C         5.37382508993642    0.74185756829127   -2.02145407806659
C         3.86829872775495    0.51942205990921   -1.99312824612372
C         3.46873888770081    1.23641812649627   -0.70274979900912
C         3.00535190040511    2.67527497862626   -1.07489149095755
N         2.50734018667187    3.62848190350387   -0.06189466079208
C         3.43701049943633    4.25196263444060    0.87376277414885
C         3.66851445925354    3.58614412951849    2.26014868042138
N         4.71036572530033    4.32440203731023    3.01354520320712
N         2.49964549544094    0.50134397184891    0.12124104610208
C         1.40618661056367   -0.19466294072560   -0.31879373681438
C         0.80304859027092    0.04666139076564   -1.68005033370867
N         0.68903106634637   -1.01083943501010    0.37855899309862
H         2.83638427120642    1.57038348151397    4.18745492796210
H         4.59943385588831    1.32599388340647    4.09840024522099
H         3.37400456976031    0.22937256131097    3.30494929128857
H         2.82905309497457    1.69429202836120    1.69552206435736
H         5.78196274897989    1.64308167846564    1.83056686297758
H         5.85364853798753   -0.23249638940929   -2.17383532964619
H         5.82768606431995    1.35864499291167   -2.80031412425816
H         3.68554376213377   -0.55973599240573   -1.92548374871362
H         3.32165569402001    0.87150014218024   -2.87724282613080
H         2.26422254259038    2.56128540580242   -1.87398504161576
H         3.88785625117098    3.11537736348433   -1.55632958277757
H         1.73463239978544    3.21371600893502    0.45632927849562
H         3.05547360686379    5.25937653318197    1.08869646321298
H         4.39588856897683    4.33007551880101    0.34566034884017
H         2.75611765792940    3.78757695780984    2.83781395638761
H         5.60801391696095    4.01636465735330    2.63181446139086
H         4.76024140094323    4.03119170415788    3.98715981799788
H         2.90930409359479   -0.07034046673052    0.85312379049596
H         1.17188157040230   -0.75615423074082   -2.31298693177714
H         1.10335307677966    1.04685298842387   -2.00554479284026
H        -0.28006915537703   -0.11142732783951   -1.69655400638104
H         1.14175139589392   -1.34617138560620    1.23039328962390
