39
 energy: -52.272209089152 gnorm: 0.117460246692 xtb: 6.4.1 (79825abcba525fcdf90b791dcacef51065a7a4e7)
C         3.76849361737703    1.52967708977359    3.68456667976977
C         3.63086514173382    2.12196383167513    2.27589838454858
N         4.74744823933653    1.55277904631852    1.54149480319082
C         4.73481567483180    1.27311109696251    0.20002961705591
N         5.85532015322060    1.06859621371171   -0.42678751843817
C         5.46661017727532    0.69411145318220   -1.78526507022126
C         3.96011873343997    0.51073215048633   -1.90250454424275
C         3.43434219807203    1.15314123453181   -0.61810680035331
C         2.92084599682732    2.57850552734719   -0.97613507725949
N         2.32481989983817    3.46149874067110    0.04751405782634
C         3.23619603105376    4.27613946791036    0.84389586142612
C         3.66148909830961    3.67670782685835    2.21458246444609
N         4.91882850202259    4.32263146532520    2.66175737775856
N         2.47388784892472    0.27901554902983    0.06882015699503
C         1.47852773011789   -0.40474212552621   -0.57572793514223
C         0.72133193144104    0.31333612121342   -1.66478742987508
N         0.87774777329417   -1.47770966824604   -0.18258537873659
H         2.93530141367457    1.66911866407841    4.37852982305582
H         4.64659367713572    1.96135610203538    4.17366190051221
H         3.98815258217482    0.46300891532958    3.57599921405158
H         2.70840757429736    1.70623539480023    1.86337068769157
H         5.65500193263699    1.87093088211489    1.87633126987738
H         6.01496760750077   -0.17517933044634   -2.16795800021205
H         5.77275365266242    1.48795532698960   -2.47019394613862
H         3.66390292510035   -0.53113806092474   -2.07373511963698
H         3.56935720814681    1.17848767534454   -2.68086446989488
H         2.15285655642476    2.63011849794252   -1.75609992380852
H         3.86166979377931    3.02601450159985   -1.32091468358111
H         1.44746174117277    3.14476438790927    0.45688689684204
H         2.74285871900361    5.21545263637841    1.12842832382804
H         4.09538753797975    4.59538911164770    0.24031441548065
H         2.94770385023004    3.96594029458664    2.99790581894542
H         5.74395860744004    4.12983163930668    2.08872492071627
H         5.11242427166092    4.08316232547101    3.63209778728704
H         2.84681592445405   -0.33561730173068    0.78537212204963
H         1.40262809547228    0.51102769443840   -2.48814215411641
H         0.21255806133312    1.24771755838618   -1.41063563502592
H        -0.09330032111777   -0.34117276639973   -1.99097890204491
H         1.38478607767974   -1.95589315490154    0.56392489837736
