39
 energy: -52.264617189677 gnorm: 0.122115933583 xtb: 6.4.1 (79825abcba525fcdf90b791dcacef51065a7a4e7)
C         4.07265201386080    1.56571782369711    3.74801863489415
C         3.72113343569546    2.12940695394595    2.36498544855245
N         4.71257366037491    1.67816610016435    1.40399340355601
C         4.65079378104223    1.30090082671268    0.08803111674600
N         5.73169041029098    0.92213568053155   -0.52715648944452
C         5.38992235136097    0.45794947667712   -1.87048120797907
C         3.87635283868619    0.53322411977670   -2.01306657190411
C         3.34854025428115    1.16662569971468   -0.72503541268843
C         2.93680442053384    2.65084175272455   -0.95109355485915
N         2.41986295203494    3.61951646634265    0.03745209425185
C         3.48485124780414    4.18769720770837    0.85686685059972
C         3.57259877964629    3.67800510024425    2.32366220139931
N         4.69047323804263    4.43900117349583    2.93138484328271
N         2.36824018899661    0.32883967250824   -0.02107286648206
C         1.31614033975695   -0.34426380973481   -0.58118550143805
C         0.87019608030504    0.06224931865613   -1.96354334568907
N         0.69228135745266   -1.26612047084559    0.07283073267747
H         3.32106772353600    1.60968907592324    4.54075164616821
H         4.92507929374990    2.09415273048200    4.18476215064530
H         4.30905566945390    0.50283894884552    3.63747562019073
H         2.81205382061436    1.70583117952079    1.93128622641197
H         5.64435091151239    1.73905504134801    1.81028571092734
H         5.80008934050338   -0.55897607158614   -1.89149756155221
H         5.91203529787612    1.13484457655717   -2.55037133199214
H         3.54247721152030   -0.50697081457314   -2.10834943150257
H         3.58685412081905    0.99388329565691   -2.96617715423520
H         2.24222079112733    2.77165962254255   -1.79000563200792
H         3.84442020913609    3.08405368127622   -1.39023781782962
H         1.78412474472671    3.21674704706441    0.72394888979766
H         3.29699264600962    5.26973636360525    0.88032045231447
H         4.50552339286129    4.05576721119351    0.47573196263197
H         2.64780944104342    3.88315696928112    2.87991544757805
H         5.60263627205081    4.20204738039726    2.53365483073494
H         4.69006126558515    4.41537587111222    3.94914069739027
H         2.64652770226257    0.17026985633552    0.94210275447682
H         1.35665689520670    1.01778018243883   -2.14095830383910
H        -0.21758003631748    0.17686089924910   -1.95259046301493
H         0.96361657754060   -0.72094995643067   -2.72267440650296
H         0.95775305454327   -1.50786519728896    1.02892128404935
