39
 energy: -52.263235806568 gnorm: 0.114442154612 xtb: 6.4.1 (79825abcba525fcdf90b791dcacef51065a7a4e7)
C         3.84782735658138    1.57730750261321    3.65558241490749
C         3.58277580367252    1.92852704364039    2.18572389352629
N         4.73560397834413    1.51623810231014    1.40400603929679
C         4.83821049808125    1.13222875506312    0.09255212769295
N         6.00071293251963    0.89562554478168   -0.43929690623069
C         5.80807819185539    0.56517456086528   -1.85014401178493
C         4.30471196929074    0.42689401618165   -2.04420079054200
C         3.62424057912425    1.10890503754164   -0.85650232316426
C         3.17510375565408    2.56716681174986   -1.16516836400758
N         2.42843277388421    3.37741441782557   -0.18091079105258
C         3.22706882251536    4.15324393076576    0.76181875721402
C         3.39418681811902    3.47290834643456    2.15041133533331
N         4.36449687779711    4.36025424772687    2.83539365928583
N         2.60547339898340    0.23578750990612   -0.25799069681643
C         1.28768008013159   -0.10056747970540   -0.41289277760730
C         0.25123449160667    0.68415532328838   -1.17776079638768
N         0.76426828264426   -0.95154876724681    0.40480394136738
H         3.21910283227751    2.09335555289496    4.38608767355583
H         4.91952598951459    1.74642211712668    3.79516361296879
H         3.67446366376554    0.49768079576512    3.70215663740227
H         2.65919511108880    1.47209193117749    1.82157708387400
H         5.62694264059306    1.36574441222094    1.87289494701001
H         6.36545445029862   -0.36981242769523   -1.98411139571516
H         6.22759606429587    1.39112142447618   -2.42881146656240
H         4.04312835155651   -0.63766972582997   -2.07310265230972
H         3.97225839453784    0.83157430228590   -3.00864087286401
H         2.65267010683919    2.58629907405339   -2.12824359321505
H         4.12999559187933    3.06335340801266   -1.38026631387042
H         1.78229491873276    2.73855760077054    0.27955850109793
H         2.78153135300535    5.15149405235414    0.86972019465347
H         4.15476497061139    4.42631718078071    0.24292395941820
H         2.44983950335435    3.69896159779278    2.66407305862598
H         5.26470549713096    4.12326852001987    2.41131834425917
H         4.49819206211356    4.10650055643044    3.81218430555640
H         3.04174036496621   -0.25443419878518    0.51637964888130
H         0.44480446442071    1.01657639535089   -2.19421852427887
H         0.12065704577610    1.57579006730764   -0.55772073516323
H        -0.70906229159364    0.15902692370903   -1.19964040142963
H         1.55634711773510   -1.40867352318170    0.85941692663447
