39
 energy: -52.265151305711 gnorm: 0.110727602990 xtb: 6.4.1 (79825abcba525fcdf90b791dcacef51065a7a4e7)
C         3.49805754468393    1.74677188856685    3.90175872069471
C         3.52787798031549    2.12743497376296    2.41572443264552
N         4.50048750707462    1.33251596540668    1.68619564844961
C         4.50788975002405    1.31860188893185    0.31592041563418
N         5.66251142244141    1.22272416891048   -0.27392076976086
C         5.42974656676212    1.09703333319027   -1.71156393884361
C         3.99509755160851    0.61969804242013   -1.88712807724084
C         3.31382455499533    1.21147158678352   -0.65243007398911
C         2.81116976419863    2.62469878775565   -1.06914703631176
N         2.39661284893462    3.54154848924839    0.01266204455731
C         3.45931804827340    4.15061500995665    0.80523102699692
C         3.89680638035604    3.62411465559829    2.20178951193359
N         5.33978464495603    3.93465298549660    2.34130586592703
N         2.38232863878945    0.28951313970632    0.01145614844171
C         1.42919601444417   -0.46216934626214   -0.62117345380560
C         0.79268655427270    0.06211076900591   -1.88411386653969
N         0.99807115030811   -1.53888496713623   -0.05410044227450
H         3.24566498194583    2.72258425649808    4.32522804505364
H         4.48753304536244    1.51378488249415    4.30583285634984
H         2.84791881666330    0.93373032485591    4.23954710913924
H         2.52708948651956    2.10892554448678    1.97752699397668
H         5.40272990086529    1.42755953433447    2.14870526250326
H         6.09274158618698    0.35570209699884   -2.17382125202843
H         5.64722665019349    2.05747830539823   -2.18409685588123
H         3.95331627132945   -0.47515113337263   -1.93313752121909
H         3.49737090821455    1.04590837451401   -2.76749682046779
H         2.01908105916427    2.53448686344590   -1.82099418886160
H         3.69509237261355    3.02823081595093   -1.57917586137371
H         1.61560556195633    3.12299430040331    0.51515993659618
H         3.14293733730119    5.20093271315290    0.86341717515030
H         4.33872481829099    4.06513738753475    0.15424849077647
H         3.38686031628613    4.20708009296618    2.98079310156856
H         5.98458287251793    3.47199110134625    1.69589368004603
H         5.72954809103040    3.73815375559346    3.26101115132233
H         2.69952463281619   -0.21771877891530    0.83145498459280
H         1.38605755848935   -0.16563058442592   -2.76570569224328
H         0.77188762889438    1.15481321873126   -1.83849129922235
H        -0.23741015937945   -0.22774871117970   -2.11496165340128
H         1.34876500814940   -1.76258726290259    0.87863530922221
