39
 energy: -52.270252089198 gnorm: 0.105599307843 xtb: 6.4.1 (79825abcba525fcdf90b791dcacef51065a7a4e7)
C         3.99909391830185    1.76056014632121    3.89331711404355
C         3.67821390073936    2.04756239522272    2.42064699309596
N         4.63517300428369    1.35359926636656    1.57641821636764
C         4.59608462745182    1.25500611256317    0.21016270583309
N         5.73125740682896    1.10701470204329   -0.40606589090884
C         5.46704690163349    0.83245309401507   -1.81730799644057
C         3.95455337946505    0.76601578138013   -1.97491183558823
C         3.32408185385044    1.22498287630237   -0.65936523325222
C         2.79265947878271    2.64032263319487   -1.03075402979633
N         2.41161204910074    3.56856480536413    0.05365873055982
C         3.55226631988195    4.13155272970104    0.76809725632218
C         3.70260112386788    3.59043433484814    2.21846431699806
N         4.93647443481872    4.20770872520747    2.76124799973853
N         2.42485771215673    0.24187612244069   -0.04022550850594
C         1.32876363737419   -0.35889862320787   -0.59821838674338
C         0.68423501891456    0.07592942956038   -1.89071204130081
N         0.72337889523924   -1.36047299112970   -0.05313574948442
H         3.67197169078652    2.56247350777038    4.56052327350632
H         5.05530220239662    1.57709904263578    4.11100198826931
H         3.53208030002878    0.81264749516899    4.17823436265646
H         2.67067794789523    1.68180994393061    2.20843564664947
H         5.57871013482895    1.62791596617841    1.84377155132154
H         5.99228422080453   -0.09085608500957   -2.09014886457688
H         5.94798364044188    1.61563078128061   -2.40753850480424
H         3.51529267494636   -0.22775762467932   -2.12330901769636
H         3.60466470730825    1.38146236938446   -2.81350565839734
H         1.96560265122737    2.54094110380189   -1.74273519017437
H         3.59638257894345    3.03567698320446   -1.66479724462657
H         1.75712543551379    3.06730635939400    0.65203267085148
H         3.26782559001329    5.19109556002440    0.82388368797014
H         4.51205478847996    3.95998958629185    0.26429854741157
H         2.81660084721896    3.99918551151257    2.72310901893758
H         5.80323531825430    4.08856534806492    2.23124036658713
H         5.15200960157664    3.79576435212150    3.66691445630786
H         2.70840184753549   -0.20785875296996    0.82443446638987
H         1.21314006718836   -0.25426431985820   -2.78087548516874
H         0.50312166497423    1.14843414174611   -2.00666139183262
H        -0.31024384394629   -0.37944111325614   -1.93607641783489
H         1.23406298229320   -1.79870286084956    0.71509678666350
