39
 energy: -52.270501632348 gnorm: 0.112431285997 xtb: 6.4.1 (79825abcba525fcdf90b791dcacef51065a7a4e7)
C         3.89955581873309    1.77310424655628    3.98247153918267
C         3.71593366589660    2.06935858059131    2.48828018268012
N         4.66351507864033    1.35011990164632    1.65469579449882
C         4.66470884111923    1.18609071900511    0.29418280447813
N         5.82261299815761    1.09379554937991   -0.28976576329966
C         5.67141620351783    0.69263614251242   -1.68726574569363
C         4.17656326572063    0.61784305142837   -1.96423184560504
C         3.49590211687087    1.16793143499919   -0.71007430594783
C         2.98076647666348    2.62588046017739   -0.89047917680216
N         2.18889566086663    3.04662901235945    0.28369840032580
C         2.70972834269716    4.09364595901637    1.15602792479185
C         3.74171406700366    3.60028913423984    2.20986793971804
N         5.06858602129384    4.05999252618561    1.73429592043505
N         2.47890830552372    0.31328948218113   -0.08258114385445
C         1.30200883556319   -0.08343361886258   -0.65810438236618
C         0.89227356066886    0.44755437302165   -2.00910445317391
N         0.48906997814097   -0.93447162808196   -0.12742396702618
H         3.26805393021196    2.38587372445790    4.63128351170659
H         4.89670142128542    2.03066365641364    4.35123218353925
H         3.64827588041553    0.74648270103128    4.26659218170665
H         2.78822401181598    1.55301875432276    2.23004544292204
H         5.59042415661033    1.25076677520749    2.06452291846820
H         6.18553443976044   -0.27357007323205   -1.75758079508651
H         6.07572984974854    1.44345513807770   -2.36979105517656
H         4.01476755558449   -0.44972069212255   -2.15577050492811
H         3.85143640858699    1.13902987870125   -2.87367837707741
H         2.42565426839334    2.73600887104887   -1.82884958373440
H         3.83790515710260    3.30701209155221   -0.96570988353651
H         1.74972801242109    2.31400110837248    0.83872295442825
H         1.85729725899289    4.49979387984605    1.71732532786554
H         3.18338347169526    4.85446657459943    0.52258987552655
H         3.52718220134456    4.14617689235105    3.13869672639461
H         5.33875160595566    3.61295628661207    0.85478081462401
H         5.74054849329604    3.66839565586635    2.39118528155975
H         2.60731632750869   -0.15841044732771    0.80697276908698
H         1.77364880581067    0.35025585000180   -2.63749135825492
H         0.59229381697887    1.48109941988096   -1.81337644271029
H         0.08029462832980   -0.15563079908692   -2.42775266935562
H         0.77109579507934   -1.36895863634520    0.75275065250051
