39
 energy: -52.261149275682 gnorm: 0.116618651469 xtb: 6.4.1 (79825abcba525fcdf90b791dcacef51065a7a4e7)
C         3.56403735809833    1.28494598308016    3.58842097752804
C         3.54032253804568    1.89857353846827    2.18236607740828
N         4.73572031592605    1.47532726600108    1.47387153822259
C         4.79428476690304    1.31152438357243    0.11459178833667
N         5.93339422944879    1.14091124430825   -0.48838181409822
C         5.72064010720772    0.88047050676293   -1.91095056569791
C         4.24220356131531    0.63223436042959   -2.17456722386161
C         3.62674153782841    1.16752524519823   -0.88093738748802
C         2.97734757506579    2.52880742113691   -1.26658532506585
N         2.48360724932887    3.35481366018199   -0.14555191955301
C         3.31383348406707    4.09908327268325    0.79532910908581
C         3.39609390906929    3.44795884574447    2.20538034204275
N         4.41339119770471    4.27658133620311    2.89572528165187
N         2.73575570883462    0.24174112248494   -0.16854355707026
C         1.39989964781684   -0.05158813190055   -0.22471392185876
C         0.69953908150662    0.08131369918047   -1.55394851815668
N         0.77527480897609   -0.54387523281034    0.79226896997977
H         4.51823542424035    1.21130877694906    4.11692987879806
H         3.22934571807197    0.24362820605279    3.60452727650625
H         2.90666813521975    1.88473858788223    4.22554928988193
H         2.67328344607743    1.66800612263955    1.55865213255167
H         5.65195229242731    1.61512432244368    1.89573112197460
H         6.27971492352156   -0.03926994029379   -2.12149529634713
H         6.10059263955118    1.76250187988663   -2.43123531578858
H         4.07613685698001   -0.42506095379817   -2.41353527442248
H         3.87244097751044    1.24351584830359   -3.00766191201091
H         2.04999090828142    2.34852847170693   -1.82185640656499
H         3.69773218267703    3.09047307407579   -1.87475009509615
H         1.83319313428971    2.83329078711358    0.43980224698329
H         2.91451363555896    5.11824469152350    0.88754256586734
H         4.35185222142476    4.28077351594079    0.48882183457200
H         2.51420209668430    3.72979617206677    2.79662888443656
H         5.40879150537513    4.19384799515981    2.67501940320639
H         4.50619395087109    3.95749708345159    3.85799249683088
H         3.10683735621603   -0.09255352116668    0.71510859391993
H        -0.01948127924253    0.89554698951726   -1.58849260139796
H         0.03482731459150   -0.77517048126285   -1.69922678877847
H         1.43068188980899    0.21665433699425   -2.35739208911547
H         1.31330289919175   -0.67386751690153    1.65055369155069
