39
 energy: -52.268681911047 gnorm: 0.114228197935 xtb: 6.4.1 (79825abcba525fcdf90b791dcacef51065a7a4e7)
C         3.82188861432845    1.61358854271620    3.70843578028569
C         3.71346112837535    2.24145306022078    2.31268466682648
N         4.80181243553305    1.73643857901010    1.49382597389931
C         4.73318932504796    1.25580453048645    0.21234855548021
N         5.78023796937052    0.67087113856315   -0.28944664178634
C         5.46847395991798    0.20017675689197   -1.63779583365801
C         4.04841527883894    0.63928918636742   -1.96567256452328
C         3.46616195844916    1.18792560964559   -0.66229728621118
C         2.94678750423461    2.62659602320414   -0.95213102337477
N         2.27043157686982    3.37952809458063    0.12416709768549
C         3.02493679828220    4.31288833241739    0.95364313091095
C         3.73907224154397    3.79554543187289    2.23479150329905
N         5.11014645886571    4.31417269959204    2.45675181921256
N         2.46525645180533    0.30120844065201   -0.05372704184929
C         1.29123725370698   -0.20872022865100   -0.53886643260492
C         0.69443177603062    0.37804674829601   -1.79368122191885
N         0.78872417008549   -1.33933922368552   -0.17016837134905
H         3.00038936029149    1.88297274650404    4.37762123472871
H         4.66906479815145    1.93886285470640    4.31926288495168
H         3.85390138668451    0.52089496110613    3.65538989659336
H         2.78522083587688    1.86783159296158    1.87369245601705
H         5.69686518683549    1.60152018084092    1.96037431235340
H         5.63939906836533   -0.87584884623863   -1.51221825571507
H         6.14578281523579    0.63028471586471   -2.37894315117645
H         3.46653917027210   -0.19899469499191   -2.36724147272611
H         4.09215953292118    1.49531090986954   -2.65105525523601
H         2.24666723718228    2.53197514918067   -1.78980360631799
H         3.71673809352776    3.32817970061283   -1.29744695975444
H         1.51961748674277    2.93150291857101    0.64686754702627
H         2.37462080480522    5.08513343119785    1.38651294341541
H         3.79466825718310    4.81512417936377    0.35388185846445
H         3.13458096554802    4.11422947978281    3.09489094910561
H         5.65069245140159    4.12740959381157    1.60863199483992
H         5.60720153379838    3.70799566397096    3.10626776024050
H         2.84011155335103   -0.33849522993830    0.63949620806966
H        -0.06794502582973   -0.25932057308849   -2.23379930772922
H         1.44140197160924    0.75511727301818   -2.49821369224403
H         0.06136232074669    1.22200996636401   -1.50152095981358
H         1.27514581781323   -1.79277270366212    0.60495545225783
