39
 energy: -52.261128126380 gnorm: 0.116936676273 xtb: 6.4.1 (79825abcba525fcdf90b791dcacef51065a7a4e7)
C         3.95470496513351    1.47201514446226    3.69619071718588
C         3.66062906220976    1.95843896705413    2.27105817141083
N         4.73915975424910    1.56896632374562    1.37934052920665
C         4.78693321947550    1.26048194322139    0.04500260480514
N         5.92180261263111    1.06626743732740   -0.55882564368445
C         5.57180922064313    0.86172982689635   -1.96327021096053
C         4.15567954559256    0.30447501475618   -1.93271925605521
C         3.50076657860772    1.07044976803040   -0.78242378745370
C         3.19993560856487    2.55517002603672   -1.14107752175337
N         2.50887559530592    3.40276261661688   -0.14769714866873
C         3.29432122353226    4.13592937328900    0.83922313005810
C         3.39744258132727    3.49214944563897    2.25127399916480
N         4.50468599444966    4.22941551135157    2.90590054331249
N         2.47363190015057    0.36802959576760   -0.00137501529313
C         1.23680215327074   -0.08937387052010   -0.36844831516917
C         0.52399460653630    0.48581883179247   -1.56681853120964
N         0.61546785140910   -0.94923364989655    0.36731103573866
H         2.96662074159386    1.60801411261054    4.14388692975321
H         4.72667616453225    2.04594947529949    4.21703663318483
H         4.32919814303444    0.44403755628840    3.66729631455691
H         2.70716631705668    1.55308713508058    1.92387538901153
H         5.59379002808147    1.21878880192602    1.80826075342918
H         6.36159071507821    0.25398103714439   -2.42120341529197
H         5.64526237994975    1.81338616388793   -2.49430160479948
H         4.11472952318973   -0.74414280651466   -1.61447244605743
H         3.63259375389236    0.43953046075735   -2.88800845778647
H         2.65615120764761    2.48425300661764   -2.08980623148061
H         4.19036176597786    2.91061456575294   -1.45252878457157
H         1.80447146679942    2.84751414489768    0.33518802012267
H         2.94609011333833    5.17153362483341    0.95283908446996
H         4.25771917863801    4.19624766749104    0.31704783662825
H         2.45469457830856    3.75436963956166    2.75048042210932
H         5.36055564787865    4.04090400861137    2.37833233495399
H         4.49366518672931    4.06449438497239    3.91042275207423
H         2.89529833162274   -0.13749070182853    0.77124537025754
H         1.12761391738120    0.37003079292100   -2.46314228929313
H         0.31330418507375    1.54493599974092   -1.39248256764867
H        -0.36898253441756   -0.11118562670411   -1.77797242486446
H         1.31603485475503   -1.25325779423233    1.04539663726140
