39
 energy: -52.272635361502 gnorm: 0.104742659606 xtb: 6.4.1 (79825abcba525fcdf90b791dcacef51065a7a4e7)
C         3.85135261708767    1.47778370634465    3.64059040108998
C         3.67813947791483    2.02006606649320    2.21580318953644
N         4.74441729552305    1.31655389300716    1.52428313341070
C         4.80865135406510    1.21771238018566    0.15899673718113
N         5.89766251944238    0.83057160095380   -0.43634607019624
C         5.62951873393773    0.44673607300762   -1.82110768723876
C         4.13799806656569    0.64354832677638   -2.05245280467126
C         3.56132234162891    1.18989391998377   -0.74564005620038
C         3.05525971020272    2.62886051951914   -1.05676976774109
N         2.19650194397463    3.38424184729216   -0.12150732923230
C         2.95751910154803    4.16886876618474    0.84476563005930
C         3.53970877741343    3.56900961056995    2.15632897709438
N         4.72960266233727    4.32959074542067    2.60772015651678
N         2.64909645180357    0.25923058426776   -0.06729899799729
C         1.35262762195951   -0.07505549654191   -0.35213216158172
C         0.66863304999147    0.63353449912864   -1.49453491689104
N         0.70558701466406   -1.00564743398931    0.26600541199554
H         2.90184033983623    1.40869350959679    4.17807624085334
H         4.54528763723768    2.13993725550572    4.16654428175991
H         4.23106062602083    0.45578419131157    3.54489939118757
H         2.75408082965561    1.60545282242782    1.80574383917705
H         5.59046083544413    1.49152883471067    2.06334143616024
H         5.96884544632738   -0.58803808168126   -1.95116939480196
H         6.18460478378804    1.04848164095389   -2.54417146957825
H         3.71063681552259   -0.36470104389271   -2.11035646261539
H         3.98285948461086    1.27489017408516   -2.93663359079370
H         2.44844277685595    2.55652397815659   -1.96636170165097
H         3.96169347596380    3.21095930658803   -1.26611516554585
H         1.63757435742682    2.67927057224871    0.35627879206961
H         2.25991343739833    4.97141860834962    1.12028285681764
H         3.79545263527538    4.63613673832686    0.31187822885823
H         2.83437138857441    3.80634317396730    2.96435881839115
H         5.57179580054604    4.17302980266515    2.04863425241831
H         4.97941263592730    4.14985819586954    3.57812032503836
H         3.16205975010464   -0.34635127869113    0.56550022907336
H         1.25807843730159    0.59329733247553   -2.40672707042746
H         0.44854846390618    1.65659529183568   -1.17606663266883
H        -0.27080801111203    0.09840799030626   -1.66628641831404
H         1.13774946674854   -1.38226426621652    1.11123925937178
