39
 energy: -52.267730736198 gnorm: 0.127785931966 xtb: 6.4.1 (79825abcba525fcdf90b791dcacef51065a7a4e7)
C         3.74358158974704    1.44096788455789    3.59177285665376
C         3.56997948245747    2.09354758728217    2.21405967953908
N         4.70723031705591    1.62108932222827    1.44365621834369
C         4.73402667870082    1.24082863306619    0.12737874969929
N         5.85633017512803    0.96425804481672   -0.46776823941547
C         5.55240460808015    0.45226539589593   -1.80279195397421
C         4.04458167834349    0.42510536930071   -2.00924263224091
C         3.48275981209535    1.11013911818993   -0.76269021274448
C         3.03729281661357    2.54118750930324   -1.18362449718527
N         2.65795015532928    3.50370468778764   -0.12890105644361
C         3.63153924285209    4.16598842294222    0.73247836678711
C         3.57611693351708    3.64971214151548    2.19854843660215
N         4.71588482203503    4.28867474256141    2.89907759159590
N         2.52321415363738    0.32520866282655    0.02572164414047
C         1.28550222352201   -0.08717695808447   -0.38866446381056
C         0.54508099681781    0.24957144642497   -1.65886497358327
N         0.68059537415127   -0.89022956945551    0.42124367481332
H         3.24400234092639    2.05834183239521    4.34311035283604
H         4.76234003202531    1.21001971526169    3.91644930859542
H         3.23771844602606    0.47189842618842    3.53862384729251
H         2.64578695559841    1.75284147583341    1.74106420233223
H         5.63104411612351    1.90065778789990    1.76830880050620
H         6.07040154740608   -0.50235891092452   -1.95506742952978
H         6.11809356314546    1.13211865032482   -2.44375610847893
H         3.68226501689295   -0.60707512203094   -2.08597158794409
H         3.72398379334524    1.03344330814663   -2.86456603941464
H         2.09663934664123    2.49495788692649   -1.74384832026787
H         3.85425600442738    2.99533737324953   -1.75860773753924
H         1.77983369838080    3.16550864169392    0.26122590891605
H         3.31815806807180    5.21148538973619    0.85648640838319
H         4.64266618544206    4.09727205354042    0.31135923894063
H         2.63867287385563    4.04062017386812    2.61703359806446
H         5.19482160850683    3.67652774994258    3.56411389018308
H         4.33838740417230    4.98559165330856    3.53797337667538
H         3.04194326750060   -0.22045050540491    0.70650927131458
H        -0.37265730330315   -0.32976835086828   -1.71614701088022
H         1.20218579253745    0.15979100019860   -2.52873014399366
H         0.29125398259896    1.31039718926591   -1.56597224638423
H         1.30131489644634   -1.28846889849837    1.12774038152829
