39
 energy: -52.273750974085 gnorm: 0.099894233547 xtb: 6.4.1 (79825abcba525fcdf90b791dcacef51065a7a4e7)
C         3.65400955309369    1.43822427503069    3.76730330701120
C         3.54946378427859    1.97076085698860    2.33218432014601
N         4.61748866888500    1.45489445650054    1.49356495041442
C         4.78311998426608    1.37275137684766    0.13572792897000
N         5.95724024677334    1.21386187424368   -0.39948425676768
C         5.74932005870317    0.85324804496206   -1.80074169291938
C         4.26124829371693    0.60597606910987   -2.00418338745131
C         3.55636666459274    1.18953859924727   -0.77886521307597
C         2.84229152164868    2.50858982440318   -1.19567035895595
N         2.38716890014700    3.41257223171381   -0.11935214609612
C         3.28766942190246    4.11152422305629    0.79116137609987
C         3.48672995550847    3.52142881746018    2.21634086446591
N         4.73060054701487    4.15800152166068    2.71196802232543
N         2.64294491552465    0.23764833176803   -0.13233404955523
C         1.35994281411221   -0.16275853462964   -0.39173431818211
C         0.65376078105049    0.24710536527962   -1.65994208120614
N         0.78084820501082   -0.95840596384464    0.44394000431476
H         4.53448032337147    1.76393753614478    4.32758907190356
H         3.69507024538596    0.34525072223041    3.74877095886701
H         2.80074390154287    1.75350208559694    4.37587177214501
H         2.59383645250344    1.63241058422299    1.92446787733670
H         5.49210196344985    1.74339469176141    1.92808648851358
H         6.36895394587467   -0.02095156384215   -2.03450462293994
H         6.11474641203231    1.62610901392308   -2.48058652058533
H         4.05493037130310   -0.46971068852745   -2.05792514363472
H         3.94633516606569    1.06689441380927   -2.94907500919361
H         1.92496676770078    2.32655985949638   -1.76680715268806
H         3.51169636372984    3.00972020311829   -1.90634058592715
H         1.60320110778311    2.94848127687437    0.33636510110977
H         2.78471557656427    5.04580516601482    1.07542570494718
H         4.27218223183660    4.32317927413775    0.35483854577099
H         2.58454289144037    3.86367663609134    2.74137915998786
H         5.49436504738185    4.01171050076925    2.04740772534097
H         4.89363836468540    4.05476513114054    3.71154104106387
H         3.08338307576604   -0.28105423771311    0.62083092514902
H         0.13466469608819    1.19527733937147   -1.54738729105460
H        -0.04718990992190   -0.49420422226812   -2.05445555026576
H         1.42429274129799    0.44482139970005   -2.41200413552743
H         1.32157348272359   -1.23468824299851    1.26510329986511
