39
 energy: -52.260653751693 gnorm: 0.118693697896 xtb: 6.4.1 (79825abcba525fcdf90b791dcacef51065a7a4e7)
C         3.78851836034082    1.53914959609574    3.74634580422709
C         3.66762361584919    1.94729108114281    2.27227097730449
N         4.79363363477492    1.61330321096988    1.41750116830711
C         4.83344796495048    1.24231967343644    0.09890765046147
N         5.97889251249929    0.85419067549630   -0.37813447969897
C         5.79433089474558    0.54641859010259   -1.79517680589934
C         4.30314548926549    0.50095269737459   -2.09715124285590
C         3.63697842659843    1.11204296192177   -0.86362039252082
C         3.08307977107069    2.49937953874597   -1.30182103704818
N         2.39208568512042    3.26833406899384   -0.24635055774095
C         3.27360548050827    3.94688014464044    0.69756050467399
C         3.41709414779620    3.48011425668663    2.17421717665337
N         4.39317576813043    4.33820088921398    2.88768558460841
N         2.61266236145261    0.29085496618036   -0.20417808086736
C         1.26091628647797    0.07995157625570   -0.24902411324377
C         0.25699439835137    0.77167213956628   -1.13710976349100
N         0.73256341687991   -0.94256477057266    0.33583543728606
H         3.02277529801293    2.01661166449251    4.36352130159348
H         4.73022245634741    1.91601934985148    4.15595929745312
H         3.75617043169269    0.44597826803833    3.78815511982726
H         2.77442410610849    1.44015011161609    1.89952453241936
H         5.74750980508010    1.59879727770923    1.77373093764807
H         6.45866014644374   -0.30100211231261   -2.00340996224355
H         6.21532379977915    1.39060639197410   -2.34576870889135
H         4.03172807670790   -0.55627921048877   -2.20274767073113
H         4.07274387180455    1.07229254200115   -3.00540347545353
H         2.39295887479396    2.30239475045459   -2.12991950212761
H         3.78805889325218    3.16522559125828   -1.81557216686384
H         1.68215285973080    2.69003350182866    0.19999906929267
H         2.95524467090407    4.98845090473006    0.84048154338912
H         4.26290184441693    4.15998303769492    0.27291850120892
H         2.48139003968971    3.71167464057895    2.70107381155869
H         5.24786071151162    4.18821438350051    2.34602576104657
H         4.71825170904872    3.98921508524122    3.78708530063744
H         3.19807721320977   -0.50792457856629    0.01838965743547
H         0.72925034649063    0.87098870388125   -2.11090132299312
H        -0.11438072968034    1.74596170051775   -0.80642400348902
H        -0.59249821852657    0.08212308607807   -1.17306667241263
H         1.37944600014874   -1.44695624103179    0.94424079669697
