39
 energy: -52.267550965748 gnorm: 0.112623426990 xtb: 6.4.1 (79825abcba525fcdf90b791dcacef51065a7a4e7)
C         3.88230662397413    1.45276638215778    3.66158439559588
C         3.61812726055407    2.01365839907532    2.25812404450033
N         4.75030812220074    1.65706163767161    1.42081706171774
C         4.80591040805030    1.24214468631921    0.11595887322937
N         5.92874885663460    1.05668086828404   -0.51260562941538
C         5.61926162811316    0.72920615063950   -1.90320747841831
C         4.11679245002475    0.51334519340971   -2.01669734357997
C         3.53654810493900    1.15002460363699   -0.75306614417801
C         2.99205580495431    2.54958585649719   -1.16328855254904
N         2.40341643906266    3.31698450916556   -0.04642476768574
C         3.25719779692740    4.11238584343663    0.82928298941987
C         3.41975111790261    3.55714555580142    2.27297925577399
N         4.54392033595378    4.25916251113380    2.93743459732563
N         2.57206342642332    0.29847194556942   -0.04379588267380
C         1.37217213572791   -0.22670370092336   -0.44148921976882
C         0.61414966542685    0.55048734465849   -1.48858445539927
N         0.81027537460800   -1.21120992799242    0.17639142477166
H         2.95294811919534    1.62289546574245    4.21166340334735
H         4.75579285312362    1.97538421672993    4.06222516538186
H         4.11188743275639    0.40641349191222    3.43740537312725
H         2.62747661404261    1.66296865432378    1.95884960559683
H         5.64455922392957    1.97828132617068    1.78704462646101
H         6.21899034643907   -0.16344348754588   -2.11842435909669
H         6.00837716445199    1.51066076133215   -2.55968084092165
H         3.74216980804689   -0.50005823795633   -1.82900441073801
H         3.67587993819151    0.90958215583895   -2.94029281978071
H         2.14312923861638    2.38512328123639   -1.83641009068863
H         3.70400572325791    3.15651810744747   -1.73691492940846
H         1.81376552622439    2.67581940344185    0.48166919830442
H         2.83692534420478    5.11495965836613    0.98697405352640
H         4.22957670375317    4.27487093105044    0.34708094792343
H         2.59108330488704    3.77703833726047    2.95978133929740
H         5.36627751081415    4.27969493529631    2.32941752500893
H         4.71945512366492    3.92987876415783    3.88461201208469
H         3.13526868601568   -0.25539661342012    0.59364044351499
H         1.11395399564720    0.67154553047857   -2.44602895259335
H         0.30442258731080    1.56332175999069   -1.21518321492240
H        -0.30904269946430   -0.03542995435522   -1.54173749140139
H         1.42577954092823   -1.75347049982135    0.78477697308600
