39
 energy: -52.256842548239 gnorm: 0.124068742089 xtb: 6.4.1 (79825abcba525fcdf90b791dcacef51065a7a4e7)
C         3.65270247421166    1.33687567615511    3.57413314462533
C         3.54816316112070    1.99838238650600    2.19370858428768
N         4.68417698674478    1.48201121938686    1.45012860664924
C         4.82708336035421    1.34036912825917    0.09461471134751
N         5.94196708475211    1.02564487059265   -0.49550332659726
C         5.71463691185172    0.89362555764976   -1.93344888869303
C         4.23678142104956    0.53535571797733   -2.00034733921080
C         3.56849640433914    1.16476918094046   -0.77721946538163
C         3.02320632665762    2.58103116295999   -1.12418738601546
N         2.25795729832884    3.22091894645816   -0.03436205298641
C         2.92385887358366    4.07337758092051    0.94459623473747
C         3.53856901402157    3.55248600287218    2.27492614772997
N         4.88834735270732    4.06574429432779    2.61070807450042
N         2.60665668909981    0.34869404191647   -0.02401121901767
C         1.34148824723821   -0.09872317082155   -0.29396530029238
C         0.76218295666779    0.28596430568845   -1.63241714681704
N         0.64297186910995   -0.75230414078649    0.57302014018565
H         2.79432451744739    1.56670277993806    4.21100427452127
H         4.52038502769627    1.79007178009470    4.06235532815351
H         3.80756668758592    0.26521249829133    3.41484390664700
H         2.63569180083043    1.69050135995747    1.67743104486744
H         5.55657752222524    1.91163454522421    1.75233860027627
H         6.44107137973091    0.12477778987772   -2.22324587357555
H         6.01882521000230    1.76801029915400   -2.51306970324955
H         4.19868750733659   -0.55872024526266   -1.93628564366791
H         3.74056907805989    0.82381961492832   -2.93576065098878
H         2.44177997103590    2.41681594629970   -2.03840487418116
H         3.82392253780376    3.31621731635103   -1.27465846100657
H         1.47616236104397    2.75387528069937    0.42207086804387
H         2.22880536654270    4.80847982629307    1.37258568906151
H         3.65140339362546    4.60419218096303    0.31741541179608
H         2.79613090767013    3.77137207422361    3.05442267200985
H         5.51973994385761    3.90450706306004    1.82221354986646
H         5.18747566873975    3.77463911256183    3.53923665648885
H         3.11786905371713    0.03656547025668    0.79546012437069
H         1.49368468457124    0.11537949113270   -2.41788863980550
H         0.63804942705748    1.36328022037651   -1.48926006583310
H        -0.16685793679047   -0.25818808192705   -1.83038093398821
H         1.13566123340402   -0.90791685575855    1.45396665192795
