39
 energy: -52.272077141551 gnorm: 0.117878870051 xtb: 6.4.1 (79825abcba525fcdf90b791dcacef51065a7a4e7)
C         4.32707543880658    1.48565662728563    3.64478903102118
C         3.76500082785534    1.94985151449743    2.29471985319602
N         4.80515111225054    1.85122486112714    1.28554300066064
C         4.80320272409113    1.31693018284238    0.02362858152261
N         5.90602164147879    0.84067944390629   -0.47359574096584
C         5.62655240939967    0.37404779765297   -1.83041090744163
C         4.14871841762951    0.59064323257607   -2.12363887724638
C         3.53664598199719    1.14874874827954   -0.83806758813600
C         3.05895306455066    2.61031512098059   -1.08129424670360
N         2.29388291340611    3.25885995002322    0.00352784716051
C         3.08081547240687    4.02996813352479    0.95987469097110
C         3.29332103708258    3.43049655468068    2.37918772462363
N         4.18440009045117    4.42335079407431    3.02595176233100
N         2.62894365704746    0.20061455964128   -0.17810170166905
C         1.32985632331930   -0.09814324691513   -0.48926794384442
C         0.59405968804624    0.57472022108421   -1.62103226589126
N         0.69324418961901   -0.95115540593134    0.24138397354893
H         3.50524249932967    1.79023391332622    4.29828834050212
H         5.27235832130852    1.94598623297443    3.94671210510409
H         4.51312699865822    0.41029904190667    3.72730465312262
H         3.01206407930255    1.21507682938744    1.99954259314456
H         5.76338438833826    1.91588899015110    1.62406523092829
H         5.83233623514417   -0.70272810740830   -1.79842830963753
H         6.26854701593378    0.90538806651843   -2.53649867172637
H         3.62360914346509   -0.31904332485978   -2.43873866773481
H         3.99170274172828    1.28795041258927   -2.95643233982198
H         2.30887652903033    2.53633706992448   -1.87673707961647
H         3.88180588694963    3.26362547201933   -1.39813093203783
H         1.64462168141851    2.62878667864256    0.47164284399895
H         2.69006150960876    5.04876094187294    1.08645357651241
H         4.04685829675160    4.19410579845711    0.46564696673503
H         2.27582237925858    3.44411112415093    2.79301306224677
H         4.92915929952629    4.74791528498671    2.40436566538916
H         4.68295503379262    4.03359315355860    3.82339596354054
H         3.04078470999724   -0.34351241366706    0.57330257413947
H         1.14096153102457    0.62793642941011   -2.55870269207054
H         0.39358193634025    1.58860606847938   -1.26276306550965
H        -0.36328418455709    0.04505944423582   -1.65791908695250
H         1.10807971848043   -1.24705760445595    1.12647055339866
