39
 energy: -52.262046017570 gnorm: 0.119972966277 xtb: 6.4.1 (79825abcba525fcdf90b791dcacef51065a7a4e7)
C         3.63719361982604    1.64599386018457    3.81319631481057
C         3.64588981524206    2.04761834288332    2.33241486124986
N         4.73033964598986    1.41664091121798    1.60035350685483
C         4.64395878894544    1.23546102193727    0.24476698328981
N         5.75389427363630    1.16718155185000   -0.42875919389348
C         5.42105125137382    0.94904766273909   -1.83532546660630
C         3.96773524985944    0.49654888369607   -1.83267872558130
C         3.36926672430670    1.21247405855241   -0.62102919664819
C         2.93593373454237    2.64920869257925   -1.03520564816051
N         2.47271268145758    3.35150787833152    0.17928348032620
C         3.51729745026078    4.11870731271331    0.84914740181601
C         3.71459458461390    3.60207311904823    2.30281078910462
N         4.96841755445884    4.30755997353183    2.66100264807514
N         2.39039198876021    0.29649873063018   -0.02000473445317
C         1.32335901456417   -0.34369011655253   -0.59036202626735
C         0.89667926038966   -0.11861423343978   -2.01945882390348
N         0.58293462553908   -1.19075377669889    0.04289294546614
H         4.14211684675192    2.41654585366101    4.40187297628003
H         4.30056586319448    0.77737959771485    3.85866226685564
H         2.59274988475221    1.43834897503921    4.06585980459634
H         2.71679349208125    1.79858226151632    1.81405372948031
H         5.65333221003758    1.63669316569434    1.97001753960443
H         6.16938892185527    0.38765802242602   -2.40773146109556
H         5.39397525942990    1.95164094508554   -2.26789117881022
H         3.91897609169866   -0.59462576629124   -1.73512003086474
H         3.50376883226846    0.72111605413555   -2.80156516631403
H         2.14499248787279    2.46926419433122   -1.77198837485385
H         3.85174274479288    3.14143037655979   -1.38634430869276
H         1.67673251988850    3.97625147059997    0.06191586025801
H         3.33380501489449    5.17507483159851    1.08803620043303
H         4.44703638929758    4.03568034002611    0.27197066481451
H         2.98523162091423    4.09460893921578    2.96021357448983
H         5.62866393960486    3.88490293580326    2.00387754075863
H         5.30339692597503    4.05493789986532    3.58855653552801
H         2.56537420325801    0.00794888740580    0.93729136577249
H        -0.01409656154032   -0.68740892033187   -2.18714731621181
H         1.65147958290642   -0.55309576662759   -2.68128578837409
H         0.78764727979786    0.94718984422270   -2.24436360002956
H         0.92871266166593   -1.34505777622639    0.99139318844605
