39
 energy: -52.269432189889 gnorm: 0.101569045428 xtb: 6.4.1 (79825abcba525fcdf90b791dcacef51065a7a4e7)
C         3.35757063254181    1.42112146484531    3.54811054932072
C         3.50368774702666    2.05707870286726    2.15947822479121
N         4.68169251593110    1.53399443581138    1.48957869316147
C         4.79371270411410    1.45083582392929    0.12633303088173
N         5.95777191630209    1.40549200133737   -0.45087269173179
C         5.76749029181303    0.95231369399440   -1.82754181218912
C         4.32144709795808    0.49170123391517   -1.94452377219817
C         3.58663862780901    1.17764904880066   -0.79198740617951
C         2.91723768728121    2.52895701094032   -1.17850410213802
N         2.39731510213824    3.34183674054299   -0.05971513543249
C         3.39255497911806    4.06375029196116    0.72565635531478
C         3.52727712737468    3.61239966049704    2.20792044444891
N         4.74102151163356    4.18250080883429    2.84029248103959
N         2.70018135509251    0.24008592019422   -0.08941656243297
C         1.44789462910369   -0.25782247938207   -0.32936177600804
C         0.49508299083395    0.31562767622143   -1.34835014517307
N         0.90492540475936   -1.21840450180425    0.34087963901150
H         4.23990616624838    1.43733200052222    4.19344710619152
H         3.07638674600680    0.39111589732846    3.31010892204076
H         2.60722683991042    1.92627970751034    4.16424145455822
H         2.64059849170988    1.81391912336009    1.53506845234022
H         5.52314531784826    1.73432777343860    2.02699240612287
H         6.38816895399302    0.08933787069257   -2.09744354698347
H         5.89052812612626    1.79284045289128   -2.51413918167408
H         4.24325945172391   -0.59794737700230   -1.84907819060148
H         3.84617021175080    0.84465700293413   -2.86862889929956
H         2.16380265847862    2.16194474443515   -1.88451721447456
H         3.60670733855490    3.21582355842909   -1.68558655390464
H         1.46593738797837    3.24751335517143    0.34191002389550
H         3.26121746530525    5.15434187787379    0.72247660618069
H         4.40367571186057    3.92253044216254    0.32299921502862
H         2.64946308053837    3.96669380784641    2.76528786551970
H         5.51697116408894    4.13762575825861    2.17526163066257
H         4.98746617165690    3.45946260178714    3.51324573860964
H         3.15524911010975   -0.25214380850147    0.67276375495832
H         0.31394282984483    1.34507204862261   -1.05070615316473
H        -0.49788571808862   -0.14197759839189   -1.31483585732134
H         0.87693505919575    0.22258381250212   -2.37008410958117
H         1.51493649377933   -1.57274770970508    1.07935932196500
