39
 energy: -52.271311413112 gnorm: 0.111582404956 xtb: 6.4.1 (79825abcba525fcdf90b791dcacef51065a7a4e7)
C         4.09697206732891    1.28163186065479    3.43563641410052
C         3.74402469995725    2.07463628199739    2.17046302773666
N         4.84454031122017    2.01209132516820    1.22440208937647
C         4.84191952327108    1.23969772283958    0.09245514338958
N         5.92010687175522    0.70422352518014   -0.39849882243840
C         5.60265888901607    0.20292636922237   -1.73443425624866
C         4.20819153644178    0.69944509927253   -2.08914467123196
C         3.58329680981634    1.22671144605477   -0.79674196988677
C         2.97507420493182    2.64922512792522   -0.97007991916476
N         2.19173444577692    3.30861338654321    0.09498703804895
C         2.84451508364085    4.23544437040931    1.01331798100519
C         3.39398567810466    3.58416365310872    2.31442895400724
N         4.42514555298086    4.50658143734925    2.84728905269728
N         2.74255199997756    0.20993266281648   -0.15040924461786
C         1.45302826777304   -0.17348644917937   -0.40304905622473
C         0.67736550114884    0.47744068790328   -1.52093704240099
N         0.79828230225222   -1.06645653879931    0.26078006465672
H         3.35959931476156    1.54483909540982    4.19868387340449
H         5.08587132057702    1.51429670260582    3.84130371237045
H         4.13559479420215    0.20703083013945    3.23177650883033
H         2.87553752633886    1.59797598676473    1.70952680648237
H         5.73699537865051    1.94039992438953    1.70955574183123
H         5.68209721081468   -0.89090051796081   -1.74139924718469
H         6.39272263577604    0.50451326694046   -2.42572587582882
H         3.53049639081179   -0.02445003916653   -2.55739927664180
H         4.23736488867900    1.50235466647480   -2.83675507838741
H         2.37004263623285    2.71546279675841   -1.88132424101352
H         3.75133595815775    3.42030376016808   -1.05459085576139
H         1.43055268355404    2.73595265266174    0.45599413532282
H         2.04023012583048    4.95996753458061    1.19997689129301
H         3.55200720368909    4.77256532257062    0.36880503811098
H         2.55749584435893    3.58182895324915    3.02648203908857
H         5.20931707597143    4.61220089645496    2.19898571548843
H         4.83094319155305    4.04325663801482    3.65787138175536
H         3.22134522448781   -0.39475554954500    0.50944287351314
H         1.07228356481098    0.47137778035117   -2.53344006935839
H         0.43543661323967    1.49490192122149   -1.20038172701300
H        -0.19148551097272   -0.18720222404752   -1.56284395354926
H         1.23856245188351   -1.53865855436390    1.05211028879678
