39
 energy: -52.258917172793 gnorm: 0.124115360389 xtb: 6.4.1 (79825abcba525fcdf90b791dcacef51065a7a4e7)
C         4.02701716233663    1.86350224914017    3.90412302525993
C         3.67484460254353    2.15006814796867    2.43853576050973
N         4.64970729608456    1.36871223610569    1.69745315331870
C         4.55805367851024    1.03906607908286    0.37048833210629
N         5.69404960895376    0.82338700286261   -0.22386186264862
C         5.48214480541888    0.62617496468034   -1.65669099042752
C         3.97571055251509    0.50501244808935   -1.83797810988331
C         3.36967035789040    1.17088199966390   -0.60179810942963
C         3.06957162719556    2.68974237717804   -0.76467818444134
N         2.19184865724141    3.32867492177753    0.23739431667320
C         2.79495413221065    4.22662443918382    1.21638380217275
C         3.85143020507348    3.68056449554003    2.21870666025982
N         5.22162848399620    4.04081075696505    1.78182630475846
N         2.22612374981955    0.45125729261285   -0.02484195223300
C         1.31272241770994   -0.22656086055809   -0.78639901940944
C         0.99694087155571    0.37312971517774   -2.13387283371877
N         0.61051769574910   -1.20111566464096   -0.31320935314517
H         3.36278208305291    2.40270803046994    4.58477487039121
H         5.02390039437138    2.18042365724548    4.22413124682659
H         3.78520883616006    0.79922009074671    3.98567162208986
H         2.63601419282963    1.87557952511114    2.23997953558574
H         5.63046304288528    1.53775330248762    1.91316835964052
H         6.02001221464952   -0.23695910739388   -2.06719609528398
H         5.99276379321433    1.51381903119842   -2.03668539385506
H         3.64531019350880   -0.53955448778229   -1.88565179004686
H         3.74996513150569    0.80139697168325   -2.87027234434828
H         2.57550046546151    2.84892888515573   -1.72975341573675
H         4.03636407161056    3.19956769014279   -0.86305092725219
H         1.68100009782254    2.63501665512687    0.78102662392818
H         2.01268651741530    4.70268913923603    1.82307106715985
H         3.40511189560961    4.89445096630058    0.59496913514702
H         3.73130885219102    4.24608086427701    3.15278501888512
H         5.45624850634309    3.43086778463920    0.99486971086976
H         5.88854293776733    3.85412333966120    2.52798863508906
H         2.57872862281723   -0.13239283914483    0.72703434063994
H        -0.03162249282973    0.06971595932880   -2.31038608983852
H         1.46513665745582   -0.28929657007773   -2.86769623804373
H         1.11354409000906    1.45756997977929   -2.22768898306740
H         0.87037000377187   -1.44831402106819    0.64303049028862
