39
 energy: -52.261415354492 gnorm: 0.130508975264 xtb: 6.4.1 (79825abcba525fcdf90b791dcacef51065a7a4e7)
C         3.75774289517624    1.62845676472030    3.76821204194271
C         3.60336621122922    1.99048504042514    2.28524375590911
N         4.76013617716101    1.47245299901019    1.57559325369508
C         4.71782138884510    1.30517472518941    0.21613377703566
N         5.83912475336615    1.40007300313644   -0.43496488219898
C         5.65075156862598    0.97667326467531   -1.82134280868439
C         4.20397786419045    0.51459115231952   -1.92241461864385
C         3.49735151620323    1.11198547383015   -0.70479102324024
C         2.91815921348601    2.51709688922117   -1.04202120842938
N         2.28082852890755    3.33503177974436    0.01039212503857
C         3.11818883333540    4.13291547525101    0.89959362119109
C         3.57332974636934    3.54633315199091    2.26624727524768
N         4.94382317959790    4.08138724989433    2.44941390097891
N         2.52775264245624    0.16746138156401   -0.13366126288114
C         1.26081970876046   -0.24979267971603   -0.44105117034390
C         0.64506796384877    0.50694411155922   -1.59136923443371
N         0.61341067969444   -1.25113820153609    0.05384848275213
H         2.99320534541853    2.12615476922531    4.37072103237422
H         4.75084870068128    1.84405740911599    4.17303032701416
H         3.59723929897706    0.55063894174479    3.87002211398958
H         2.68247606511235    1.45623212760627    2.03933244454750
H         5.69478276042319    1.53027291120983    1.97569622434697
H         6.49659643239676    0.28051595925229   -1.87357013280566
H         5.90550476290433    1.83101526902128   -2.45240543594993
H         4.15219278721595   -0.58059769800662   -1.90151110749727
H         3.85757271448936    0.74739995483194   -2.93742186520249
H         2.18881253683996    2.54567137021817   -1.85936677749749
H         3.84291693002237    2.94058117070490   -1.45405387158409
H         1.65672429097953    2.71312884025116    0.52165992511969
H         2.52511961967199    5.05082023924666    1.01081149672747
H         3.98287518225695    4.42552705249542    0.29038352609011
H         2.89635820400289    3.93516322106409    3.03907390360928
H         5.50922438555797    3.70951312512385    1.68233582251403
H         5.38965277328858    3.91165477083201    3.34875374999508
H         2.94354792623351   -0.56225295251362    0.43636232499911
H         1.28533800846599    0.46539543322902   -2.46857354475564
H         0.65348694727555    1.53736436886196   -1.22438711138544
H        -0.30751358336552    0.08976224902939   -1.93335776470521
H         1.13245166364383   -1.77033601310972    0.76381677171723
