39
 energy: -52.257396305301 gnorm: 0.119454179555 xtb: 6.4.1 (79825abcba525fcdf90b791dcacef51065a7a4e7)
C         3.96036155901082    1.40240932418619    3.74519181758760
C         3.74338957236161    1.97531581060800    2.33849609752279
N         4.86659790154054    1.58805293060742    1.50272803884325
C         4.81678239943451    1.23774300180511    0.17883078082122
N         5.94735300231116    1.13642295820345   -0.45504674166781
C         5.73000943078934    0.70956506757707   -1.83611504187309
C         4.22835863232346    0.51343044516926   -1.98929997052808
C         3.58630894632823    1.12188682880650   -0.74175798340799
C         2.92075926340360    2.49066659617058   -1.06888421628225
N         2.13102373079873    3.01099394886223    0.06617479233854
C         2.87141039977875    3.94391108872296    0.90876790920227
C         3.49376183950736    3.50972545715035    2.26638928033527
N         4.72412543512825    4.32092561954202    2.42839190586490
N         2.62214294925945    0.23094066768308   -0.08218553184715
C         1.37715388259879   -0.09733874427640   -0.54688267602225
C         0.65774347393240    0.74176330582139   -1.57323001133081
N         0.53982978543494   -0.86096575044262    0.07159864246647
H         3.13873668142432    1.75390981639045    4.37496797662352
H         4.85775974450421    1.77318360061453    4.24900085587432
H         3.88868423068835    0.31074243367180    3.71447200065758
H         2.80284701135929    1.57980922827147    1.94748276175748
H         5.78762287998319    1.72339802130789    1.91550454140633
H         6.36897597008605   -0.16058730072423   -2.02943558994924
H         6.07055238888054    1.48010885920703   -2.53133604581115
H         3.93878422206324   -0.54305990213319   -1.93898023806536
H         3.72504118842514    0.95938410950600   -2.85661367438753
H         2.37153446380419    2.44329210229452   -2.01594526471374
H         3.78693434980283    3.16199612618645   -1.12671212420520
H         1.68825783631519    2.34714607315795    0.69936393264268
H         2.16088674844958    4.73312553954402    1.18974184377156
H         3.68263648839217    4.29218209157172    0.25680127188331
H         2.81599577022236    3.77023008925399    3.09071371379916
H         5.59753393461602    4.22078129639007    1.90541354426896
H         4.97588789609020    4.67177572892702    3.35029491821223
H         3.01847647722556   -0.49794041850699    0.50257742180920
H         1.14945291380983    0.82447320030635   -2.53891128543716
H         0.39824525426089    1.73090570634326   -1.18493805074591
H        -0.29753426720747    0.20782919115105   -1.60092970400458
H         1.05177020607651   -1.48271670227727    0.69958562291664
