39
 energy: -52.258289701270 gnorm: 0.125456831185 xtb: 6.4.1 (79825abcba525fcdf90b791dcacef51065a7a4e7)
C         3.64759009366168    1.53731620637376    3.71712724312733
C         3.63669543301203    2.01048864396133    2.25764765530397
N         4.62734595409925    1.25104458416109    1.51472506180913
C         4.87409960464100    1.24058424956830    0.16679857959987
N         5.97475052555169    0.77735146602146   -0.34724352222563
C         5.75369211581854    0.67532554865503   -1.78860379248859
C         4.25024838334543    0.60939574598774   -2.01707638492761
C         3.64636518453418    1.24624415299873   -0.76465587992011
C         3.08559839477124    2.68883257722705   -0.93200343991630
N         2.06956836973782    3.18621767245793    0.01829795039716
C         2.55197415808160    3.98866324733333    1.13715258407472
C         3.63740189386573    3.56409964713472    2.16699073023335
N         4.93516979619838    4.23078636027895    1.90352839047063
N         2.66246416380991    0.44613379543752   -0.02290180914311
C         1.42563043656146   -0.04191388319872   -0.34810994035327
C         0.77274969614362    0.65986355732258   -1.51270753931633
N         0.79663928989209   -1.00689357401999    0.23493489913255
H         2.73309451012696    1.80588743839884    4.25266936212895
H         4.39681574156060    2.01293578334871    4.35671113582681
H         3.86232727947287    0.46448921670059    3.74447928862339
H         2.66186648155677    1.78478856630910    1.81866567464846
H         5.49374610900168    1.11045053291567    2.03103294892974
H         6.18755122051876   -0.29065601036204   -2.07401949172611
H         6.23731979276063    1.51661951388259   -2.28997014098252
H         3.84222858950556   -0.40756449119177   -2.06030810908328
H         3.83604931850610    1.19980096455566   -2.84429883786034
H         2.82725520576115    2.80225015146378   -1.99087646914841
H         3.95253122292621    3.35910985772696   -0.87333056570005
H         1.60214686344695    2.36715979942693    0.40342839308217
H         1.64828356000665    4.24686326324661    1.70576994635032
H         2.85870461910963    4.90661977954060    0.61974252226437
H         3.31593201025990    3.84223035721867    3.17992739737288
H         5.29097992940186    4.03665828775258    0.96433134018519
H         5.58009326921311    3.79564569492635    2.56011929517839
H         3.02439184178096   -0.31210026991157    0.54664631486003
H         1.47133355712350    0.72330651815382   -2.34283704740153
H         0.45153985808271    1.64481712029299   -1.16170415892533
H        -0.02778814160246    0.06363106775732   -1.96221220887204
H         1.22251856345374   -1.36716613373790    1.09042037743341
