39
 energy: -52.274492862517 gnorm: 0.111496943134 xtb: 6.4.1 (79825abcba525fcdf90b791dcacef51065a7a4e7)
C         3.87388475271991    1.83992203455162    3.91027574042577
C         3.60660019789311    2.09194740618779    2.42060003282762
N         4.54783676668998    1.25546013586117    1.69641739756134
C         4.70213741117164    1.12826894016595    0.34071968886784
N         5.87104293511752    0.87336091918586   -0.16813992881583
C         5.70174937367832    0.77299638936322   -1.61660883890010
C         4.20703592495248    0.74820013104098   -1.90315093040484
C         3.50510331276898    1.21249065059656   -0.62622772517461
C         2.96552104697614    2.64831579493864   -0.89227866145685
N         2.07587814752831    3.13839336256093    0.18063381775532
C         2.64467547808180    4.11502279724067    1.10320332804246
C         3.71320273290198    3.61446289682974    2.11644739765283
N         5.06910442451980    3.93565029412866    1.61003414163839
N         2.55267536594511    0.29957954900470    0.02023283884032
C         1.42640660436034   -0.13176804453511   -0.62719785807123
C         0.69157166977513    0.74766040140090   -1.60783829102643
N         0.93121170552032   -1.31716610330728   -0.49925085732192
H         3.10164974481429    2.21635300729471    4.58643464059287
H         4.78622301822896    2.34330436104496    4.24324081106523
H         3.82259747337644    0.74894895256966    3.98074061851091
H         2.58525829926804    1.75987914859470    2.21928290861442
H         5.33571178571011    1.03244610550165    2.30181597515651
H         6.12975252717605   -0.19076998200706   -1.91791250366599
H         6.27977868107786    1.52055046740538   -2.16440852827077
H         3.92693053297926   -0.28918826885622   -2.12206537256643
H         3.88522597983861    1.21303389289898   -2.84379118872337
H         2.47748625144842    2.63960217168128   -1.87338159144676
H         3.80853080243328    3.34598780189115   -0.97519420603209
H         1.76046345986160    2.34121199214714    0.73079703310665
H         1.77499588453362    4.42984023687162    1.69582212696671
H         3.05732881580648    4.96170604539310    0.53992218450618
H         3.53421937160487    4.26656643523076    2.98216455955849
H         5.24698255597640    3.45902533591923    0.72258516724974
H         5.82410293262376    3.66365611204541    2.23643794017104
H         3.00655778885294   -0.37793416695053    0.62460153549689
H         1.25313168772886    0.73519467635128   -2.53824378229163
H         0.54618148855746    1.73817832123666   -1.16710185557659
H        -0.26830468506976    0.25504960048652   -1.79325795522195
H         1.39093410325099   -1.88541836466405    0.21402999117572
