39
 energy: -52.259459571199 gnorm: 0.130999214856 xtb: 6.4.1 (79825abcba525fcdf90b791dcacef51065a7a4e7)
C         3.95566334461525    1.44959320578237    3.66497781260209
C         3.74248523768470    2.03121743549427    2.26128272286387
N         4.83668504622698    1.79580434236361    1.33533173743726
C         4.74000075156108    1.40441441650345    0.02561089046791
N         5.79449513260931    0.91047987035145   -0.55259897209657
C         5.46170169043661    0.49204232752573   -1.91309670947988
C         3.96270646325211    0.66340138057596   -2.11443950779455
C         3.44179975211677    1.19163245525827   -0.77711527221179
C         2.98305747700474    2.65149844413990   -1.06324960479474
N         2.46446917617460    3.52804435320328    0.00703781646602
C         3.48983088194108    4.10133043376166    0.87216579696289
C         3.44006814702107    3.55634609199018    2.32801263859942
N         4.42704017759976    4.36077535731586    3.08752887723473
N         2.44134282143274    0.41987014222286   -0.02751150321961
C         1.32599150161702   -0.25721930655145   -0.44133500762588
C         0.74505540500846    0.12122193767505   -1.78086026313487
N         0.80895841862562   -1.14778046012788    0.33733989585034
H         3.13366584467010    1.71918510936654    4.33346742752524
H         4.82226158739815    1.98549838333449    4.06301518293408
H         4.14607398291917    0.38099148940437    3.52479182029948
H         2.83260385018800    1.61629845178980    1.82094727561689
H         5.66008205075675    1.49824019918013    1.85539203823418
H         5.83292534036281   -0.53460068011880   -2.01804124792032
H         6.02182867550402    1.08680408056052   -2.63804891920743
H         3.50463616563327   -0.29382537967532   -2.39092783238022
H         3.84194795129088    1.40817339033923   -2.91141392221988
H         2.10491745994155    2.74588821816636   -1.71192328662133
H         3.82086127002033    3.18615382506016   -1.52856144908534
H         1.69413878835495    3.16854325328323    0.56829905777275
H         3.32492048689414    5.17996967000867    0.99862379521974
H         4.39938636313285    3.93079160781492    0.28219436246202
H         2.45481743205728    3.65238066080143    2.80424648890376
H         5.29866741566091    3.91079099436629    2.79742941408423
H         4.32290601922426    4.33509453830487    4.09989337556908
H         2.97459507363985   -0.00592767888607    0.72390973490912
H         1.62149823390726    0.26008277672984   -2.40833541246995
H         0.12719614052270    1.02025459756235   -1.70021991158065
H         0.12457129682349   -0.73330932645549   -2.06927708236780
H         1.41126381464337   -1.32994583536577    1.14174580805900
