39
 energy: -52.263223168587 gnorm: 0.119716422572 xtb: 6.4.1 (79825abcba525fcdf90b791dcacef51065a7a4e7)
C         3.89163464869331    1.61124827939475    3.80399835656032
C         3.64127228489010    2.01467286974196    2.34500594896958
N         4.72266529636387    1.52586252226606    1.50731187129311
C         4.74019714199424    1.22262716368956    0.17103211948257
N         5.88871833590855    1.18227759098327   -0.43685549965783
C         5.66586270423141    0.90858735022277   -1.85538451473765
C         4.21498702112736    0.46385998358956   -1.97398831798587
C         3.51280373128128    1.03698484894619   -0.74221134930844
C         2.92923124776121    2.42314878072322   -1.14410528899188
N         2.43319514400495    3.28705952139810   -0.05305619164232
C         3.40557476976549    4.04541117010127    0.72659155823553
C         3.58150942589835    3.56248010282343    2.19451487479095
N         4.81241770238560    4.18679251900747    2.73597952752608
N         2.51687086586567    0.22129717432766   -0.03425069058716
C         1.27140410252703   -0.14299031476915   -0.46992916712627
C         0.54929378525049    0.27074627212165   -1.72786841110625
N         0.47465201474908   -0.75463988021373    0.34113673892431
H         2.93853717245962    1.66047708401226    4.33730856319812
H         4.53395483843715    2.21646674071042    4.45033882877721
H         4.13947442967527    0.55604467328019    3.95545377206783
H         2.65977713001275    1.62092459864514    2.07011185574667
H         5.67944415503185    1.83324677303584    1.67186857390012
H         6.37343846476543    0.15318100643001   -2.21803313110643
H         5.86330086309661    1.80771645527495   -2.44328290320077
H         4.13631613400750   -0.62974798562810   -1.95424575383416
H         3.77537070803576    0.81393928523810   -2.91665377228587
H         2.05131459777953    2.34900417800628   -1.79570470379562
H         3.67637669053955    2.96949806324690   -1.73364988428611
H         1.63579028145799    2.95322364770031    0.48579742538409
H         3.05698215382315    5.07708906216759    0.87072198194664
H         4.37869711445640    4.11763872313599    0.22433959185733
H         2.69854873656035    3.90695503812626    2.74990458322779
H         5.60760251134188    3.69703738513467    2.31860835586225
H         4.83986761731918    3.86205231252991    3.70043564752140
H         2.96520181023977   -0.29782484372209    0.71395202809974
H         1.15749180640072    0.70602271391548   -2.51640439873080
H        -0.20067881285671    1.06551328336096   -1.67888726365944
H        -0.01722720440232   -0.51581389378284   -2.23657808715721
H         0.91516702963482   -1.00376454293019    1.22821526403062
