39
 energy: -52.270964069929 gnorm: 0.109906655839 xtb: 6.4.1 (79825abcba525fcdf90b791dcacef51065a7a4e7)
C         3.32653707923909    1.43630637573317    3.59821524589372
C         3.50912005244192    2.01560604905534    2.18925573702055
N         4.58603799158307    1.34100047237784    1.48552791745246
C         4.69221940732555    1.31746551232065    0.11948463726561
N         5.88052280154074    1.41636828309382   -0.39859803607681
C         5.64319749270602    1.21011533122864   -1.82615958246367
C         4.21961244580008    0.71491058520315   -2.03845044898993
C         3.46242450920691    1.20132946666787   -0.80197518499130
C         2.77218363886369    2.56351608350800   -1.10453281293105
N         2.33886286501382    3.49068602149639   -0.03899506619840
C         3.37251183105374    4.11394141869548    0.78051239307090
C         3.72737637068024    3.55647915058791    2.18844749353260
N         5.12273545217955    3.90764284754212    2.54585795106992
N         2.70133780920300    0.12997745148616   -0.14517322132957
C         1.40369318544891   -0.28656197092846   -0.27293038439506
C         0.63765980528607    0.15354193802446   -1.49544166434912
N         0.82780776918568   -1.08454629018665    0.56273341197903
H         2.69374794459304    2.09344720283842    4.20069503188539
H         4.26096556476793    1.35946789508998    4.16173975519895
H         2.94276883267421    0.42103597018184    3.73880643838142
H         2.60000025272438    1.84001268556911    1.60907872081578
H         5.52924786024140    1.51022297853229    1.83006914847212
H         6.29876522711532    0.44457062157093   -2.25858121179091
H         5.79735442485646    2.15186934757501   -2.35754880190798
H         4.14910946964636   -0.37908307456666   -2.06609944943045
H         3.78743045711364    1.04074286919582   -2.99316937555936
H         1.89588572015567    2.37451124785008   -1.73476766828564
H         3.53348721228206    3.11040110181338   -1.67516432121721
H         1.57990455365926    3.01496170044862    0.44611602635649
H         3.19543062266665    5.18782583301309    0.92905250730743
H         4.38093358424494    4.02926016598633    0.35582944736897
H         3.13234984256926    4.06900815480749    2.95656059294530
H         5.80268389260831    3.37190189071068    2.00085390475425
H         5.21130661632261    3.73753212357686    3.54565932922926
H         3.10217744948515   -0.14330678192850    0.74642025212310
H         1.28755034613217    0.15125775746646   -2.36653091867642
H         0.18155432823230    1.13737890550899   -1.35210544149813
H        -0.14090360013728   -0.59504850417912   -1.67393491267858
H         1.42464422792094   -1.18319472640496    1.38558188723513
