39
 energy: -52.270434969000 gnorm: 0.103902150138 xtb: 6.4.1 (79825abcba525fcdf90b791dcacef51065a7a4e7)
C         3.79464870409969    1.63310376337281    3.84021673737817
C         3.64202428623213    2.04467485715373    2.37004444384903
N         4.72520133618936    1.52329765221526    1.55458687255052
C         4.70016119043919    1.28615707483647    0.20512774257066
N         5.82669720774931    1.23699079393414   -0.44198557536630
C         5.52826187205841    0.92476445873537   -1.83849787924033
C         4.13062644614250    0.32271800475642   -1.87082175026867
C         3.47775422428147    1.07230902964537   -0.70863452717446
C         3.03178960358148    2.49496503725138   -1.15662052166905
N         2.52585822798801    3.41945927876847   -0.12118556671595
C         3.38816110180744    4.12631893144764    0.81969335379605
C         3.62947373635646    3.59713403483440    2.26215854393120
N         4.85567414904621    4.26226741306920    2.76426936579040
N         2.43367469887613    0.25934062955348   -0.07034207860358
C         1.25499890512830   -0.27069091369556   -0.52145014146835
C         0.60485942616733    0.26568710523485   -1.77230972340657
N         0.53864025418111   -1.15123602021198    0.09355194591748
H         3.44335917277829    0.59925593295298    3.89491938632249
H         3.19672273880401    2.35238563213649    4.40743693602339
H         4.84170086956681    1.53971184743090    4.14481099545107
H         2.73782657599768    1.60484577637973    1.94235988218185
H         5.65990153638045    1.78990208147863    1.85830940737066
H         6.18687197456914    0.15240099752600   -2.25383345430753
H         5.56353525044497    1.87422654949307   -2.37730862430203
H         4.06831700180627   -0.72240485238049   -1.54464231911612
H         3.61145842905000    0.48929750852325   -2.82326703431485
H         2.29947998309173    2.48910190428219   -1.97179234250652
H         3.95090533404010    2.98735449552047   -1.49876899553791
H         1.64766417980410    3.14730952278865    0.31741886352699
H         3.14088822017543    5.19579371362106    0.77810646372570
H         4.40787903224880    4.21654244581417    0.42412286405422
H         2.88660754431245    4.01729624058459    2.95378982273901
H         5.64547688974957    4.12937035950726    2.12793009414139
H         5.02780419129626    3.74490521199180    3.62397449424216
H         2.86642339869490   -0.31488381244886    0.64610084965046
H        -0.05477122731522    1.05474790965745   -1.42098384432695
H        -0.05619780176024   -0.46036819194681   -2.25434675589042
H         1.27091915367420    0.71030275703489   -2.51869422341661
H         0.98521436879716   -1.57450553248287    0.90868344544848
