39
 energy: -52.266427692074 gnorm: 0.119605848248 xtb: 6.4.1 (79825abcba525fcdf90b791dcacef51065a7a4e7)
C         3.52272277693709    1.62999755556623    3.81358234789754
C         3.57849214501972    2.10232282958186    2.35485339015588
N         4.53515066564354    1.32324687360122    1.58809207969084
C         4.62332929367834    1.36010472240957    0.22106294373229
N         5.74146003095452    1.17619835893022   -0.41628976938794
C         5.53765082181020    0.95447141922576   -1.84670737130552
C         4.04513745793578    0.69596723042317   -1.99660392168261
C         3.40174528097842    1.20322583657414   -0.70527004082311
C         2.75102847262896    2.59639913866628   -0.94850194161874
N         2.44179065020706    3.59534341138616    0.09517616529693
C         3.58936092018220    4.17688248153987    0.78319124192798
C         3.83192869024763    3.63182668015104    2.21952314099588
N         5.19389801141699    4.09358556072350    2.57994434966388
N         2.56404501622302    0.13812670705450   -0.13759139744201
C         1.39338983744590   -0.40710342905931   -0.59146265547738
C         0.75426965342800   -0.13049920777871   -1.92938937750775
N         0.70064222759845   -1.10595753498459    0.24427693909901
H         2.53684717675617    1.87632951061387    4.21682907125578
H         4.23666136194960    2.22796503996931    4.38747014682334
H         3.81583963814552    0.58907590204431    3.98205361314478
H         2.58553839136547    1.79753653406104    2.01561105115456
H         5.46894778713325    1.34945254764119    1.99346347448673
H         6.20968020569122    0.10137771694838   -1.99975593012546
H         5.93144819060010    1.83939829054608   -2.35155145737854
H         3.75412605851128   -0.35084144068917   -2.14513417220951
H         3.66418255785550    1.23506871451641   -2.87334740480257
H         1.82909438806658    2.46108620824444   -1.52516892158950
H         3.35693322856716    3.15414062303371   -1.67382292763512
H         1.67838863831002    3.29373250815941    0.69842764807961
H         3.36898272517078    5.25054498638003    0.85621136115004
H         4.50278569689711    4.04923694885009    0.18837803907320
H         3.20597587163182    4.10902155699994    2.98581838703930
H         5.88815582211667    3.72091049058621    1.92764300107896
H         5.41110127735709    4.07710598406826    3.57439719841088
H         2.57252783327751   -0.06492752099800    0.85688968879940
H         1.19667450694973   -0.65660425274912   -2.77120339962348
H         0.91630860936442    0.90577375552931   -2.23986381843019
H        -0.29428184047762   -0.40689072862068   -1.77920296450842
H         1.00379657312323   -1.33204625107108    1.19296351268557
