39
 energy: -52.263543655454 gnorm: 0.123020252049 xtb: 6.4.1 (79825abcba525fcdf90b791dcacef51065a7a4e7)
C         3.84470614301307    1.63522851844911    3.83886939111928
C         3.72972659171042    2.04999183178293    2.36617029254857
N         4.75494562929667    1.43627298482740    1.54012377637063
C         4.65557161894455    1.28240691357861    0.18205432662645
N         5.79267522461607    1.16531645555913   -0.43725301152305
C         5.55101752694331    0.78317537140826   -1.82734843669131
C         4.09173996594390    0.36333207588615   -1.93284793713160
C         3.44145182623838    1.07100061500256   -0.74325197872760
C         2.92791012288208    2.48882302325323   -1.13000839570004
N         2.46768892594284    3.35023343523361   -0.02142811157186
C         3.39009537108828    4.10985126758204    0.81560059411668
C         3.63604169296874    3.60007694197665    2.26426025323400
N         4.86376175330418    4.35405128442023    2.61399054794787
N         2.49199430751855    0.22399641641561   -0.00871046550865
C         1.24455918239252   -0.14336517884579   -0.43609744413694
C         0.77429861275128    0.41272284490248   -1.75695078005939
N         0.42849911441656   -1.01662798832131    0.05197529773799
H         3.04110610478612    2.03729837961479    4.46160918422902
H         4.84880536862962    1.82282374452336    4.23029421405535
H         3.73501106647293    0.54873472899094    3.91178155450714
H         2.76992669345417    1.65253124959928    2.02742785406739
H         5.67316540670398    1.49338931700962    1.97670127785244
H         6.28658059196813    0.10660701787592   -2.27903245949262
H         5.67005741901413    1.71908374538157   -2.37775238871125
H         3.96297325838762   -0.71176533206297   -1.75923352655387
H         3.59328647863864    0.60598159254647   -2.88000236414677
H         2.16245635159889    2.38971148071576   -1.90787359982222
H         3.76449750996989    3.02729143615948   -1.59310663992092
H         1.56799260055212    3.23922251123048    0.44320853349404
H         2.94383668120970    5.11350745280044    0.80229260626950
H         4.38619731262748    4.02013304836788    0.36374606522059
H         2.82777030826936    3.96016537391593    2.91523949062992
H         5.62512653922802    3.89581106908382    2.10731784038981
H         5.19494165370287    4.15206023860407    3.55521570399495
H         2.81495717237810   -0.34589546267972    0.76666933575899
H        -0.07574162799650   -0.14653088135197   -2.13882285691692
H         1.54646480075821    0.27039000980777   -2.51853688973306
H         0.34072712949882    1.38735512523761   -1.51095046450100
H         0.70630157775945   -1.55491299222644    0.87422825457010
