39
 energy: -52.272793902427 gnorm: 0.110021995052 xtb: 6.4.1 (79825abcba525fcdf90b791dcacef51065a7a4e7)
C         3.70049989971908    1.51081146178748    3.74406263318287
C         3.61233732674792    2.10463364502778    2.33208029649173
N         4.69315283366819    1.65339146732144    1.47283871505357
C         4.67142290504523    1.33682922098022    0.13971502790481
N         5.79590083950874    1.13373631553602   -0.48041319793157
C         5.49828720795567    0.59771460190119   -1.80740317314108
C         3.98365065662698    0.49870327519090   -1.92125577905026
C         3.40594220321807    1.27602116669027   -0.73768582656761
C         2.82615281950610    2.67255046652168   -1.10792386762010
N         2.44265986320492    3.52564301472642    0.03573166541925
C         3.55492101829307    4.14900173624800    0.74479372618420
C         3.61352205660248    3.65677257769664    2.21898864525222
N         4.89765827732295    4.20900469987386    2.71307264573028
N         2.41367550039100    0.49588315727274    0.01413094762717
C         1.36653627554100   -0.23196577410316   -0.48330646893535
C         0.80216812128712   -0.00732587478970   -1.86390704446006
N         0.72794348788760   -1.00436902577646    0.33054208421100
H         2.79167303395125    1.67382031910173    4.32946837861965
H         4.55558916336556    1.93814730521258    4.27587749333546
H         3.76042413805882    0.41938390830870    3.68917247433702
H         2.61344038981382    1.85105352561379    1.96898356829064
H         5.52382638809288    1.31345793329853    1.95389629840280
H         5.95277019705473   -0.39802854790020   -1.87637428294936
H         5.94481621292673    1.20200508739345   -2.60017321829930
H         3.77924212935550   -0.57713032042630   -1.86332051273262
H         3.66743616582933    0.86831457789060   -2.90504033911640
H         1.95989916552033    2.57923560078503   -1.77253939743045
H         3.65560301007644    3.21521748179433   -1.57889263294220
H         1.82250391712964    3.00241255660972    0.65160553349211
H         3.40495336615051    5.23710941086883    0.75824943594494
H         4.55747776518900    4.07826517357786    0.30397940807379
H         2.77280075092956    4.09948105635497    2.77029362050810
H         5.71525450023978    3.71064736737615    2.35313646914982
H         4.92382083500540    4.15865111936574    3.72952005877476
H         2.88817059218802   -0.04549665741419    0.72971318483806
H         1.54668181740389   -0.40171407042948   -2.55043216187698
H         0.64383310900137    1.05404378955002   -2.07589082145198
H        -0.15441700158421   -0.49703069629620   -2.07257558227023
H         1.21607300284173   -1.28112231531717    1.18386621980606
