39
 energy: -52.264027804042 gnorm: 0.104888836673 xtb: 6.4.1 (79825abcba525fcdf90b791dcacef51065a7a4e7)
C         3.83542983284013    1.43072464612053    3.73221700075053
C         3.62900058720223    2.04610387062523    2.34196992610251
N         4.72734374002985    1.55482341744531    1.52811269763946
C         4.75164430128002    1.27839153793831    0.18613747628494
N         5.84186499466743    1.17923422229515   -0.51517773492843
C         5.61869485207250    0.50506792586612   -1.79286722400165
C         4.12403370108607    0.25288719028003   -1.93172851891272
C         3.53856616358465    0.96362567614383   -0.71070986643095
C         3.08939075530497    2.37033684138906   -1.20359035570130
N         2.53309472885405    3.27699411974533   -0.17826649149270
C         3.39851256418260    3.97186877197704    0.76866072465321
C         3.59430015184895    3.60012194096779    2.26614053591423
N         4.82542778402122    4.25340771167820    2.77173680994486
N         2.51375750507341    0.18050210727569   -0.00720319750198
C         1.21639143233470    0.02117891994783   -0.41360935649240
C         0.65160344420576    0.62701419223171   -1.67416898435247
N         0.35886110188706   -0.66354681370346    0.26650047484818
H         2.82501091402790    1.43263071065230    4.14969517619873
H         4.45536147567530    2.06289505447423    4.37460781006703
H         4.23750773254962    0.42173825579788    3.59768902107549
H         2.65531550050844    1.63869592650187    2.05931586582174
H         5.58257167813529    1.91286772332559    1.94927680931107
H         6.10333538518992   -0.47009014290294   -1.66245818495354
H         6.04242154256879    1.04158671102982   -2.64471390627979
H         3.94445049528668   -0.82439544130319   -1.83288890639703
H         3.67148696342040    0.60338777202863   -2.86809755514899
H         2.41380874389784    2.31311481286233   -2.06448026942922
H         4.00303496258279    2.88796672886710   -1.52233829092025
H         1.79293828192702    2.73085802913527    0.25941825060637
H         3.07611757472762    5.02026544515590    0.82845661089858
H         4.34222464536462    4.11363723485283    0.22667348869125
H         2.69522889377007    3.87520520987301    2.83424294838382
H         4.71684751400472    4.86537855772764    3.58418968354789
H         5.18270969094232    4.91419328936268    2.08464339343262
H         2.91430955988115   -0.38627190386994    0.73348626570174
H        -0.33691784838147    0.19686939169201   -1.81186622426895
H         1.30668683857635    0.53662016228410   -2.54549402289580
H         0.59595589285832    1.71885883045312   -1.61771458314987
H         0.68150746207308   -1.10273079018983    1.13023749714966
