39
 energy: -52.268417475078 gnorm: 0.116288960522 xtb: 6.4.1 (79825abcba525fcdf90b791dcacef51065a7a4e7)
C         3.66523951365310    1.62563951872263    3.69342909413697
C         3.64895008444420    2.12507379807388    2.24277696157296
N         4.75709553441805    1.63575156443553    1.44111919129118
C         4.70575216061598    1.18999988920464    0.14629413643017
N         5.83450295541734    0.84704840381571   -0.40011440633012
C         5.58036798174370    0.39253457476960   -1.76599439367300
C         4.07446551396662    0.41909780378575   -1.98608911567006
C         3.47168121608479    1.13227663978008   -0.77495947306773
C         2.94695639765991    2.57365369309702   -1.04070755804318
N         2.46277359790151    3.53930717527158   -0.03280773170639
C         3.47251507233038    4.19659321692183    0.78991164874558
C         3.65514973038779    3.68131213645310    2.24596943228634
N         5.01059396102892    3.98405521221951    2.76481692170128
N         2.51485658966308    0.29926543097045   -0.03400339549412
C         1.27813289093619   -0.13943432854332   -0.42357442548004
C         0.82631824092201    0.09558815661203   -1.84331397384115
N         0.41625763929481   -0.73713224414022    0.32921055677906
H         2.76519523355928    1.96162544237773    4.21522580050906
H         4.53152920106429    2.07923565191761    4.18374873143182
H         3.74832096057474    0.54705684675570    3.85948583475271
H         2.66769581686157    1.83091107299058    1.86258548531618
H         5.65656584856026    1.92874067725204    1.81808111959021
H         6.02586460444648   -0.59457419487838   -1.93909914260758
H         6.01997091486138    1.15337512471242   -2.41477047938860
H         3.64068642466447   -0.57739395422440   -2.13236673065369
H         3.78294944816933    0.90654104279451   -2.92515974618050
H         2.05945974003368    2.39048383177724   -1.65683688698263
H         3.67906338140862    3.16304969813778   -1.60720414673092
H         1.61190239179598    3.29712746670852    0.47219850531854
H         3.18618707398350    5.25600004507607    0.83811030596527
H         4.46836412224782    4.00769671572156    0.36914599261604
H         2.87754311767191    4.08200294355228    2.91043547249243
H         5.01079439992833    4.15946944037721    3.77259044500291
H         5.37718857899334    4.83796325274941    2.34908293220292
H         2.81562379156223   -0.07411603149916    0.86065910272446
H         0.13478564968263   -0.65032962367276   -2.22613085584873
H         1.59859604979556   -0.02463901062188   -2.60858848108941
H         0.22420419902872    1.00983607802419   -1.84754324795726
H         0.70048296316621   -1.11615121192663    1.23396768891508
