39
 energy: -52.279866475054 gnorm: 0.093375384112 xtb: 6.4.1 (79825abcba525fcdf90b791dcacef51065a7a4e7)
C         3.72122441999316    1.67321129927934    3.79987138490304
C         3.58840189770510    2.14591401960380    2.34625455838144
N         4.57942525596657    1.41359594513591    1.57705971064684
C         4.66415005224751    1.17996829601494    0.22941641296058
N         5.81796310634312    0.97559119664532   -0.33379031451307
C         5.63738737878197    0.56650649304270   -1.72549346524660
C         4.14475605276201    0.50630311829057   -2.01758389704034
C         3.50182172715684    1.13696913722333   -0.78158073398797
C         2.98028473049261    2.56516180319395   -1.11593218272729
N         2.46305983632737    3.42499089433057   -0.03151802679959
C         3.49575795139434    4.13477830668942    0.71561409671092
C         3.71694539723954    3.68886938772364    2.18911863892228
N         5.07024748941543    4.08561575360812    2.64655816324629
N         2.48127742634509    0.28168683411973   -0.16075993491212
C         1.22029290759937   -0.13082253986236   -0.49760208305520
C         0.62903266263539    0.06909392472229   -1.87072886205824
N         0.53339351603612   -0.82072314854186    0.35031498694290
H         3.06370261376413    2.30001603827656    4.40816321064198
H         4.77586234814011    1.71663037414979    4.08705468364176
H         3.40489350599758    0.63115508328279    3.90882801709319
H         2.56177138992522    1.89011560731223    2.07324507201263
H         5.52382204826447    1.54633667980457    1.93410923985324
H         6.01812939070525   -0.45284386533271   -1.86252116126004
H         6.25166869279460    1.26030838438324   -2.30371218858274
H         3.82848325101692   -0.53146605200001   -2.17747114313274
H         3.86052273175939    1.07283380535747   -2.91351390782194
H         2.08923892467266    2.39313789139895   -1.73014876900670
H         3.72510890615945    3.12671996662209   -1.69401180688621
H         1.86725245148853    2.84615073608976    0.55807654735370
H         3.23108301526211    5.19911555595503    0.65410749637707
H         4.49033245197296    4.07455287415122    0.25557560125504
H         2.90746811894359    4.17901454381152    2.74701159515185
H         5.16383821819408    3.76848833256994    3.61457089085479
H         5.25950656233849    5.07810382876799    2.52192377934636
H         2.66083802817907    0.01275183919977    0.80138744266552
H        -0.12188214434604   -0.67931442981217   -2.10983409369133
H         1.31900107491243   -0.05873707457170   -2.70984475401252
H         0.09914148140706    1.02690324439623   -1.88573245703013
H         0.85726284686273   -0.83083933758664    1.31883509607415
