39
 energy: -52.273529775445 gnorm: 0.109804070375 xtb: 6.4.1 (79825abcba525fcdf90b791dcacef51065a7a4e7)
C         3.92482987157132    1.42270437340938    3.70620425292745
C         3.58155822397235    2.00907829633886    2.33055103834627
N         4.68521315410637    1.56832341459934    1.49523151338793
C         4.76799446427719    1.40398685164185    0.13727592287149
N         5.91875723831933    1.43159481511991   -0.46707432460526
C         5.75867940387816    0.96710562287267   -1.84381701175667
C         4.31141764846976    0.50439860704430   -1.93450972032193
C         3.54625498849491    1.09752917513612   -0.75064730147442
C         2.92655814006383    2.47799620251978   -1.11645141453905
N         2.28578204833947    3.07477249192171    0.07352581206995
C         3.17540579200940    3.98353685004506    0.78849918428039
C         3.45431284189245    3.55844037378844    2.25835568625787
N         4.69470912539925    4.22093550091019    2.72803900515795
N         2.58205243805158    0.19433273401740   -0.10800697966174
C         1.29423082919029   -0.15576472183604   -0.41240120429808
C         0.69528443516673    0.25652766295050   -1.73388167451973
N         0.46061083644589   -0.72771143995482    0.39053816876703
H         4.92829510764906    1.62620604448234    4.08945696405979
H         3.68614266790252    0.35535696330815    3.68574578869252
H         3.19681434709712    1.82377526221091    4.41821091901986
H         2.59732655744424    1.63853038214427    2.03403884926579
H         5.55219285112459    1.27492577759156    1.94161005196425
H         6.55454767616440    0.24849527243324   -2.07405401180629
H         5.97681843785555    1.83475005468282   -2.47043331547210
H         4.29426159714097   -0.58622296062683   -1.82133932946382
H         3.92044432435393    0.74522382592420   -2.93129417693640
H         2.14428608998368    2.23501999019071   -1.84434555167783
H         3.68102648068181    3.07543249718853   -1.64383560175186
H         1.37419240811800    3.43797799696689   -0.19987905791649
H         2.88130867439717    5.03986787081899    0.85423598201503
H         4.12151403262642    3.99797777447731    0.23252111154895
H         2.70581693061942    3.86195913653053    3.00291631005718
H         5.44904408465098    3.95962945234364    2.08844883535609
H         4.91978929186036    3.83105361068331    3.64111969001029
H         2.93661792165588   -0.17054800119511    0.77031015025325
H         0.09671553656536    1.16337745151799   -1.75620104361032
H         0.14296826586720   -0.61494320473982   -2.09719701734977
H         1.53219836934825    0.37650716988244   -2.42928691805842
H         0.84932316097006   -0.95983649639165    1.30598645792808
