39
 energy: -52.259713591360 gnorm: 0.121794471920 xtb: 6.4.1 (79825abcba525fcdf90b791dcacef51065a7a4e7)
C         3.83997960908682    1.59908429830384    3.84971262470013
C         3.63652216229502    2.07375537251563    2.40493444171016
N         4.71301878341314    1.51866212711120    1.60299661053379
C         4.74347894802173    1.16851357895916    0.27846997919052
N         5.88562005747683    0.96111511187301   -0.30698364016374
C         5.57707253764258    0.56400033825838   -1.67953376045993
C         4.08129962724174    0.60010508633647   -1.95926468693575
C         3.52669723940358    1.20056753909306   -0.66672106326326
C         3.11502990715987    2.69420896377109   -0.81867931771472
N         2.27060819016461    3.38853284777714    0.17512549723827
C         2.73439010778546    4.26170539448838    1.24794700964037
C         3.72912633947055    3.62017921562277    2.25686636391858
N         5.11625534468209    3.98566030877577    1.88219071873229
N         2.50861179082212    0.31902151363170   -0.07951106911000
C         1.30487208230756   -0.08496631076674   -0.59089460972329
C         0.89277100844700    0.11743279125269   -2.02764084205648
N         0.44049534583947   -0.75941512231402    0.09081547525738
H         2.96723596132882    1.85446139115683    4.45662210399747
H         4.70529134795602    2.10163795720487    4.29163573616515
H         4.04680943667758    0.53319308621733    3.71217972012942
H         2.69189675980457    1.62993634944805    2.08144606431482
H         5.66356785232261    1.37450537217951    1.93865278009676
H         6.05273791035704   -0.40136386596926   -1.89079338140664
H         5.99790443947636    1.27610953141055   -2.39286432854768
H         3.79720359156677   -0.43834174014998   -2.16777102560135
H         3.75842652289880    1.12353045224110   -2.86822839544406
H         2.48471700470498    2.72714294200666   -1.71446827847557
H         4.00424162650232    3.30472919780763   -1.02080362261928
H         1.65118204002528    2.65865667958426    0.52334403714006
H         1.83833007242679    4.71396323040616    1.69425287011131
H         3.25688238326234    5.09729557564428    0.76500620058230
H         3.39037499569640    4.05972612957488    3.20490978366430
H         5.22012937469943    3.59863618946582    0.94102113591850
H         5.79960921375443    3.67109003399516    2.56809037361032
H         2.80033004662561   -0.19870981387562    0.74338038561923
H         0.23766762534465    0.98351351548593   -2.07126609849783
H         0.39769036375133   -0.78065503536044   -2.40822732471373
H         1.72557761061288    0.48519988054533   -2.63557915752980
H         0.74367339411089   -0.82672604778177    1.06373746422804
