39
 energy: -52.266060616070 gnorm: 0.103601652656 xtb: 6.4.1 (79825abcba525fcdf90b791dcacef51065a7a4e7)
C         3.79375291965918    1.59928259472086    3.80972948903140
C         3.59772263897896    2.11905526870631    2.37951970013435
N         4.65544773967276    1.68119725074564    1.48532972154908
C         4.68177516105816    1.40383420430208    0.14358488406119
N         5.79744531801920    1.12758381391813   -0.46405167340752
C         5.56437157661569    0.58064557138481   -1.79946574104561
C         4.05430183284901    0.53107058611613   -1.98418506106693
C         3.44885484548806    1.22583480403143   -0.76371604623012
C         2.86742667620889    2.61729026344698   -1.15013421439765
N         2.45567033948259    3.43471874363338    0.00962830908295
C         3.46836214393708    4.11912440071066    0.80619228840793
C         3.58598213214432    3.67276931057261    2.29142188415490
N         4.71237239381373    4.38884911749208    2.93683634874805
N         2.46139637538678    0.34870165683126   -0.12028760321945
C         1.41417990594836   -0.39235679899520   -0.59765392297310
C         0.54986228476787    0.19487638570330   -1.68537845861109
N         1.12044485156674   -1.58178892777173   -0.19055699414738
H         4.80950300868346    1.48913991986820    4.19877754810629
H         3.45126366059956    0.57682510814843    3.99385556491004
H         3.37723791685768    2.41002343844907    4.41556155146060
H         2.58997548351407    1.86100061050781    2.04516859313586
H         5.59025923219748    1.94566059138448    1.79057778069141
H         5.96867561261940   -0.43767476429065   -1.75069934553906
H         6.17183873128740    1.17716765862519   -2.48370586119442
H         3.72625966746408   -0.51524145034237   -1.97089110350719
H         3.73361678381383    1.06908191399338   -2.88537377268014
H         2.03502476773592    2.57787725515591   -1.86173138287043
H         3.63929703464989    3.16881606540020   -1.70178820030539
H         1.55548732234116    3.25332745752485    0.45057259001928
H         3.33545011297264    5.20744145692282    0.87364625912421
H         4.47401313457941    4.02911632463637    0.37606953265015
H         2.62866814237219    3.93103777767354    2.76427240150031
H         5.56220277290285    3.92714154366410    2.60368156695690
H         4.66736268183882    4.23151747935998    3.94162796225697
H         2.82332605726939   -0.03622128662692    0.74639391314621
H        -0.14563100414646    0.86092452700714   -1.18156461913839
H        -0.03614354224199   -0.57287708154682   -2.19886111866979
H         1.08678180094938    0.85029178036123   -2.37860032749148
H         1.71233195397888   -1.97685509488399    0.54198465276175
