39
 energy: -52.271098516242 gnorm: 0.101890353911 xtb: 6.4.1 (79825abcba525fcdf90b791dcacef51065a7a4e7)
C         3.79970140010031    1.59762014465465    3.87819003564484
C         3.57656490518252    2.00602036446079    2.41616715115370
N         4.53791171400298    1.31032634157375    1.57837249386516
C         4.70952218978207    1.24339509515989    0.22044295043329
N         5.90129041506476    1.23000274737076   -0.29894658978610
C         5.77873915824924    0.95336030946185   -1.72906745471727
C         4.30491569672526    0.72064059331111   -2.03002503105897
C         3.54650191291104    1.19467673152748   -0.78949843844868
C         2.94727707878233    2.61297554007187   -1.01946379896330
N         2.20631946402585    3.14713571623322    0.14175815049737
C         2.79460534661329    4.04244022266964    1.13212147419695
C         3.71119460936408    3.55118538856307    2.28862788233442
N         5.10667961807944    3.96510893527482    2.00689392693009
N         2.59413333205154    0.23752497158444   -0.21045482308983
C         1.30118157616246   -0.08108202460547   -0.52743097851275
C         0.68548326006132    0.26073835272642   -1.86126261047622
N         0.56120569594486   -0.79276895807848    0.25531698388117
H         3.09386347796525    2.12445116252726    4.52586275803454
H         4.74003735390423    2.04365189384754    4.21500540465069
H         3.67616102706649    0.51066728934409    3.84518672277294
H         2.59297673776451    1.73815028358774    2.02280073705077
H         5.43442450196501    1.29420652233646    2.06106777341261
H         6.37096399547515    0.08594098582720   -2.04477249690674
H         6.32032715807200    1.73056821290544   -2.27282272653132
H         4.20830395874762   -0.36532448218485   -2.14793723063989
H         3.97125895427796    1.13203949943422   -2.99120154248304
H         2.22232611133656    2.57261786590971   -1.84021601604665
H         3.79176505818010    3.22584554332914   -1.35934183884674
H         1.64687681471581    2.39102901712560    0.53289841415823
H         1.92254028510212    4.50506831643187    1.61391752342582
H         3.38882591750781    4.77426162880544    0.57017815413567
H         3.42991945182832    4.02852157937002    3.23719244322510
H         5.64092995286315    3.54242789351874    1.24381137692342
H         5.66089416918906    3.77082968023224    2.83845096398789
H         2.82247449781435   -0.19554042775965    0.67870785903553
H         1.28549169703269    0.03730733130652   -2.73945841477712
H         0.32639173592242    1.29375864676339   -1.84040581904690
H        -0.19143341100805   -0.39434612518594   -1.87829045059442
H         1.04767383412067   -1.05413140671030    1.11442309149544
