39
 energy: -52.261326391783 gnorm: 0.118959255641 xtb: 6.4.1 (79825abcba525fcdf90b791dcacef51065a7a4e7)
C         3.81202577100398    1.61305665125251    3.74666161859212
C         3.70482060468130    2.11015740975399    2.29908107386054
N         4.77621899512590    1.56673641476188    1.48245578282631
C         4.70970202746035    1.14631542591504    0.17987208581994
N         5.79607672343897    0.70151612617372   -0.37887647886411
C         5.49584785880271    0.47814920003001   -1.79194597127014
C         3.97787099041076    0.38287280499793   -1.85159639337036
C         3.41543199100512    1.15396665685938   -0.65665512858306
C         2.99921769532530    2.60217795713599   -1.04777613780413
N         2.53072431732815    3.60818231069356   -0.07245522801511
C         3.59968931276324    4.21919545808791    0.71013453542722
C         3.62997860751962    3.65842198824095    2.16051033097638
N         4.67480632380845    4.39833073339182    2.90814341753422
N         2.44046044477942    0.30895532116587    0.04607045715346
C         1.27388067477484   -0.17984891623310   -0.47725602923264
C         0.69938957804651    0.35981120184499   -1.76324178156828
N         0.64200788324653   -1.20665452442546   -0.01555917172986
H         3.03679408117494    2.01938083553902    4.40176048969613
H         4.76070398143119    2.03971641393847    4.08517560775375
H         3.83088790184745    0.52204661564299    3.66204912886006
H         2.80676877862146    1.78674644458448    1.76724889148457
H         5.59910769192631    1.23917361103470    1.98499588972017
H         6.04613506713839   -0.39284156371956   -2.16794503528549
H         5.86698612405270    1.34676812785909   -2.34039563692280
H         3.62990656071012   -0.64195907811034   -1.67496786456260
H         3.69126230524297    0.76103663358960   -2.84118406416997
H         2.18860321833820    2.51858290664516   -1.78039670050754
H         3.79850073201157    3.19621283211177   -1.50881394099081
H         1.69080805300177    3.42871680401586    0.47526451425975
H         3.27485755632532    5.26756304119435    0.75551517802099
H         4.57227780619690    4.09121570465605    0.21806365003587
H         2.61169384375918    3.83791274221184    2.53148134983455
H         5.35854573579237    4.77974963569043    2.24981393930010
H         5.12298008624732    3.84912582015398    3.63882771699056
H         2.69726272602143    0.03901720177993    0.99025349138629
H        -0.06939110075692   -0.31176529863999   -2.13623064964083
H         1.42704120843022    0.26797949304262   -2.57478518740996
H         0.22474203418896    1.33315641457411   -1.60287573845565
H         0.91501830402448   -1.49049992821823    0.92673694876128
