39
 energy: -52.264089106827 gnorm: 0.109234604097 xtb: 6.4.1 (79825abcba525fcdf90b791dcacef51065a7a4e7)
C         3.92347286067432    1.81686120502411    3.99609102608459
C         3.71511019342774    2.06380392563547    2.49619242074628
N         4.60348815125156    1.24188787700731    1.69287657879326
C         4.68881337299145    1.18773313792018    0.32624223011762
N         5.80115967348735    1.00273886321839   -0.32084290148602
C         5.52019464693888    0.68635531682368   -1.72004111591747
C         4.01404765791659    0.48024164409290   -1.79703420052337
C         3.46049922385130    1.25737729646991   -0.60185543493924
C         3.08727963953757    2.73538469518607   -0.91765164636285
N         2.21818272633153    3.34458026813805    0.11012897414340
C         2.73751800444119    4.09201896551251    1.25034658877000
C         3.86132268405596    3.58422204397032    2.19806995332578
N         5.21093071252618    4.00063979849142    1.74724898284683
N         2.34809906938608    0.45699559169183   -0.07233494596115
C         1.30784095535982   -0.16087403615357   -0.71249800235463
C         0.97657558840941    0.32244984356991   -2.10235184691183
N         0.50440402297412   -0.97384240434893   -0.11222431290694
H         3.28905972541833    2.51574382312344    4.54774409246378
H         4.95657922676001    2.09199689327293    4.22763412752294
H         3.70224566881805    0.75881752944803    4.16761378941858
H         2.66863715316003    1.86219186215246    2.25497893466395
H         5.42030541998085    0.87451872539122    2.17747868531013
H         6.03429077282794   -0.25581122293136   -1.94552638024074
H         6.04380067857416    1.45631401243095   -2.29104007795078
H         3.63340655787941   -0.54329811543565   -1.69685446948447
H         3.60186153014310    0.81322356983572   -2.75810745924407
H         2.54019290737798    2.81514453719212   -1.86377601761960
H         3.95249197869146    3.35255698757955   -1.19113405871483
H         1.56084985996952    2.61622425165391    0.38412740503121
H         1.90161614883342    4.21759180376714    1.95188005747274
H         3.25846413436351    4.96662153279736    0.84031435714724
H         3.75336156219456    4.20103104267316    3.10063924684185
H         5.48337005875411    3.48211930142615    0.90862453852091
H         5.94167214938415    3.85488436137629    2.44090423284358
H         2.52162431200455    0.18680263164602    0.89056710641176
H        -0.00147298970736   -0.09067859426164   -2.33452699124820
H         1.62888441906739   -0.27650435960318   -2.74442638651723
H         0.99251492858198    1.40471894999503   -2.26620538405420
H         0.88274273013232   -1.31772595410421    0.77187342562954
