39
 energy: -52.260023975054 gnorm: 0.123269446784 xtb: 6.4.1 (79825abcba525fcdf90b791dcacef51065a7a4e7)
C         4.18784272043994    1.47437686541842    3.67774736982515
C         3.79816730593741    2.05073346708931    2.31024684420842
N         4.91716068134239    1.90716185156130    1.39519560269536
C         4.82791183091271    1.39764122378227    0.12620940722022
N         5.90200782420195    0.88406452998202   -0.39610576042423
C         5.54446164126006    0.30278495565791   -1.68880461267596
C         4.08578583828586    0.60061368451934   -2.00574701202502
C         3.56017840502546    1.28409892619576   -0.74265844645809
C         3.02059274524064    2.69564243004720   -1.11671492008688
N         2.19966691100149    3.33836406224599   -0.06992392372855
C         3.04153910445816    4.08633768597968    0.85757628597744
C         3.33966060480703    3.53764337840764    2.28201736885746
N         4.36297497228757    4.31048960485508    3.02607486467835
N         2.57132013812141    0.40905536401199   -0.09853499448830
C         1.40832591695423   -0.14522064226765   -0.56106186471723
C         0.57605390591105    0.33674989912252   -1.72298273552942
N         0.84856467752034   -1.12167382877293    0.07136481551095
H         5.17338195840364    1.58296868725367    4.13835378586012
H         3.87194970809655    0.42885293276517    3.61682174336450
H         3.51800045320877    1.97577263742889    4.38324830412248
H         2.99546932631486    1.43180485589784    1.90215306683264
H         5.80411920860533    1.74591855226256    1.86879345243488
H         5.80443598799776   -0.76252767424890   -1.70720451679795
H         6.26640250464255    0.67704549153175   -2.41803017986554
H         3.37871618972922   -0.19720935674192   -2.26282320323997
H         4.08857507318703    1.42194475671348   -2.73365063130260
H         2.35196030134002    2.68543008209148   -1.98484118753874
H         3.84783420492844    3.37888088221370   -1.34724356929657
H         1.52872008535820    2.69593579028835    0.34814353404756
H         2.55784563404358    5.05138180019152    1.06099739538618
H         3.95040384243645    4.27436074461497    0.27186887452970
H         2.44891201555000    3.55272676143236    2.92473015666318
H         4.99422153469891    4.67051569041575    2.30615357670553
H         4.88704889235267    3.75789733115798    3.70162916256634
H         3.00109385585140   -0.22878180239091    0.56385002620779
H         0.00278389190743    1.23238550919008   -1.49857737899521
H        -0.03853338242927   -0.51163100923263   -2.03769682529244
H         1.28206285703574    0.59823178878308   -2.51770724605533
H         1.35309519189840   -1.43342455517739    0.90280051828539
