39
 energy: -52.270309155842 gnorm: 0.109169783550 xtb: 6.4.1 (79825abcba525fcdf90b791dcacef51065a7a4e7)
C         3.60672924125654    1.73473017174378    3.87718079312137
C         3.52048796179456    2.11960695531886    2.39443878833021
N         4.57949056071479    1.50457355028025    1.61320568216000
C         4.58969540785796    1.29414082141442    0.25913163124948
N         5.75368612520319    1.18222181638061   -0.30907265142109
C         5.51056690161545    0.84466592031500   -1.71040937311463
C         4.01885079569644    0.59192202250947   -1.87712206171744
C         3.35027508204673    1.22060263267583   -0.65377616277195
C         2.78499772241412    2.63014235133298   -0.99609948263318
N         2.38807637079442    3.56672932295267    0.07536679080436
C         3.46035130341652    4.20741066314371    0.82917303399474
C         3.78405680275199    3.64588377231717    2.24298934997589
N         5.13812174847151    4.18458245437457    2.51574747634075
N         2.40780503597650    0.23207506205032   -0.11248106962424
C         1.37178588513162   -0.44737618473654   -0.69447667068707
C         0.90526426979077   -0.10750803953185   -2.08799008811000
N         0.73692975764541   -1.34443967027253   -0.01698735309778
H         2.74478021485893    1.14738104065012    4.20475204022389
H         3.73908924115363    2.64368900923666    4.47123069140106
H         4.50637922418318    1.14318516016472    4.07345192495328
H         2.51981003590688    1.88034348811362    2.02656125294288
H         5.55467678803329    1.43242568199116    1.89745252990864
H         6.16253348590614    0.03244499756043   -2.05399773824920
H         5.77123898850375    1.77362693858521   -2.22238689411063
H         3.83532634775382   -0.48833601883327   -1.83332013873804
H         3.69956877494623    0.97357741128726   -2.85530115199350
H         1.87093822698058    2.37842156588852   -1.54559811169838
H         3.57262839688248    3.18618474510768   -1.52025733047856
H         1.64226828693532    3.17088402625705    0.64522723502524
H         3.21670259411483    5.25253570955636    1.06369084499916
H         4.32663467916180    4.11145638059085    0.16224961758253
H         3.22076076491726    4.19701256272186    3.00829642410580
H         5.91505927202148    3.72823927475286    2.03149893374981
H         5.42379730184066    4.22385298488386    3.49208379499327
H         2.66450899155854   -0.13238066573783    0.79942391869964
H         1.75508613865379    0.30759979638426   -2.62338498865132
H         0.10417954878813    0.63383662452871   -2.01598995997711
H         0.49934227169122   -0.99193918279288   -2.58940543222954
H         1.07808443685702   -1.50763220585700    0.93169940468655
