39
 energy: -52.268473951334 gnorm: 0.114184575357 xtb: 6.4.1 (79825abcba525fcdf90b791dcacef51065a7a4e7)
C         3.88602201619129    1.68842922438521    3.81498672537521
C         3.63347335346401    2.11785194555730    2.36381242833733
N         4.72258746788148    1.58274995150646    1.56533009052290
C         4.72690238083314    1.22086056491337    0.24361906193775
N         5.84709227534083    0.89646276474143   -0.33100866034533
C         5.56746041965938    0.43497559031523   -1.68954874148356
C         4.08702654234249    0.62972464010389   -1.98497703102021
C         3.49209168345363    1.15003794774819   -0.67572741809149
C         2.95381500824186    2.58255619965062   -0.96151697248708
N         2.17590387543888    3.26419006051680    0.09347650883074
C         2.89705116977629    4.21014519892771    0.93821635943655
C         3.57328282731131    3.66710967300813    2.22926144989542
N         4.97269765256402    4.15149587865881    2.30062873893545
N         2.54138879561703    0.22390299597188   -0.04574725085154
C         1.34781679165214   -0.17843602673717   -0.58167426119903
C         0.71162708568693    0.66459539629589   -1.65851831341912
N         0.76189429082233   -1.23142345477719   -0.11835009421265
H         3.01930205743251    1.58008749528697    4.47247940654305
H         4.70318531524253    2.17728997470200    4.35339170669491
H         4.14895019652883    0.63535226574135    3.67457432148320
H         2.72737901877889    1.71474156119589    1.90508345248451
H         5.65427519794077    1.45262515136804    1.95522143986034
H         5.89295197958327   -0.61015972902902   -1.75710335760186
H         6.25233304324671    1.00392244293678   -2.32223227570986
H         3.66932865303739   -0.34930095219555   -2.24878496508315
H         3.91910187542576    1.35212512526738   -2.79391152905971
H         2.29958766672357    2.61459388378608   -1.84002538133910
H         3.81091836561132    3.20563571932823   -1.24688063063793
H         1.52812841940115    2.67430943130472    0.61318019535799
H         2.21963357582441    5.00607608527148    1.27622388228043
H         3.68871581467417    4.67167008916755    0.33431006102190
H         3.07173301795922    4.17919025763032    3.06170456666534
H         5.38335814168440    3.79062611556666    1.43604291760934
H         5.56448764500673    3.77102434636861    3.03643531730873
H         3.12008319889889   -0.30292232896492    0.60067635757282
H         1.38179050301760    0.58254083104123   -2.51016816586395
H         0.62841839832080    1.71094666259872   -1.35072292364511
H        -0.25070432787700    0.18555813446195   -1.86552078215341
H         1.40886273805661   -1.77661877133365    0.45368030944766
