39
 energy: -52.268718746754 gnorm: 0.111495382356 xtb: 6.4.1 (79825abcba525fcdf90b791dcacef51065a7a4e7)
C         4.01021564949246    1.48942083824636    3.73475788333570
C         3.74424650151510    1.98528094915198    2.30735649857940
N         4.85250760595011    1.62147115261972    1.44163280554589
C         4.82474930103444    1.21233607190777    0.13406232151062
N         5.94455097656097    1.14269648680355   -0.52278690410698
C         5.77586406630444    0.61611942414275   -1.87595240215294
C         4.26253661688556    0.54705775243887   -2.02414164534090
C         3.57880454211410    1.07608028029231   -0.76261336408140
C         2.96176065155809    2.47277178566682   -1.06598721790225
N         2.25825912690202    3.16247923910294    0.03499913450004
C         2.99168815818096    4.03056014506060    0.94986927061597
C         3.44783463242411    3.51261484801350    2.34365452679560
N         4.55252843608057    4.45611492486065    2.63953346858000
N         2.56421647252722    0.17813313380005   -0.19451221498949
C         1.24710217701077   -0.04383447720737   -0.49392645975827
C         0.54183180902020    0.70653786019937   -1.59600063985592
N         0.61064775605707   -0.95441097675165    0.16374609947018
H         3.21036343514563    1.80311765062598    4.41082651426085
H         4.93610035158421    1.92191134731384    4.12502714642889
H         3.99445229804208    0.39705695098265    3.80041307202935
H         2.86082072338940    1.53522566890625    1.84806754290939
H         5.79628434792629    1.62806112588676    1.82403546129930
H         6.32648083313175   -0.32805912494205   -1.96630870180718
H         6.21112153428067    1.27147555061129   -2.63364546081343
H         3.98664061948064   -0.51271554051514   -2.08175446979428
H         3.85580242608854    1.03263692209510   -2.92036502707208
H         2.21667553931318    2.36683142979659   -1.86250569120467
H         3.74988553556675    3.08866339810300   -1.51745523116046
H         1.66611408943531    2.59385806809974    0.63807321417154
H         2.37095300111988    4.90837825153342    1.17519769471196
H         3.88683884341248    4.43920019132679    0.46390680431671
H         2.68662777800128    3.55425274138161    3.13458479959667
H         5.39353430604838    4.16288382666622    2.13644071841039
H         4.70787064260107    4.23338883730862    3.62067932730431
H         2.95758168979521   -0.58348008373301    0.34909125319907
H         1.23572641335796    0.54637551410014   -2.41698646923724
H         0.36304973101296    1.75429697094282   -1.33763950670062
H        -0.39705219487691    0.14411038288122   -1.62009700714453
H         1.13077428328988   -1.45595240958660    0.88551439457631
