39
 energy: -52.260262503538 gnorm: 0.120376489514 xtb: 6.4.1 (79825abcba525fcdf90b791dcacef51065a7a4e7)
C         3.94720679027966    1.70079699329258    3.95523550512238
C         3.73500116703741    2.05294796005003    2.47704400375839
N         4.67950044346275    1.28262417713040    1.68672740553335
C         4.69866979466083    1.21361602706988    0.31823433063407
N         5.80562922046985    1.00571225369120   -0.33112951671594
C         5.62793635253522    0.54618214440015   -1.70737547619403
C         4.13316426963950    0.73366008906650   -1.92508646971796
C         3.50511083506003    1.30360382491642   -0.65248234092115
C         3.14144623208950    2.80338990420033   -0.85721658085708
N         2.19561473270159    3.35084178558281    0.13700727023661
C         2.60247866067636    4.14236698774619    1.29304345067526
C         3.68332522022816    3.59421346063329    2.26786281476677
N         5.01152589723601    4.00236402133855    1.75077357951099
N         2.44806314603291    0.43273216277052   -0.12081511531730
C         1.36026063717683   -0.20937964170174   -0.64815464260143
C         0.95633659493726    0.10698577162410   -2.06653079388545
N         0.50977638423993   -0.93914557162607   -0.00715904652029
H         3.05757098436791    1.87155020944725    4.56730538758310
H         4.78036849748287    2.25347563252140    4.39909193513144
H         4.17384632648177    0.64320174315384    4.12240241989775
H         2.77933559141011    1.62273810088489    2.16791612688175
H         5.63308973465068    1.19411244626782    2.03288196065559
H         5.95053271736800   -0.49865010073899   -1.79147909373561
H         6.11274080835219    1.22891344097503   -2.40871857070259
H         3.52844697775537   -0.11379116518949   -2.26961615009960
H         4.11761521912493    1.47052508668383   -2.73824355695203
H         2.74940770278327    2.90201779977471   -1.87574260683625
H         4.03037007577807    3.44583785692713   -0.82031417595124
H         1.54916299631838    2.61814759562542    0.42497174156510
H         1.74058459153756    4.28607080167405    1.95872920017402
H         3.08340763803083    5.05255152502488    0.91263260766244
H         3.47456959225415    4.11242359085755    3.21370618184202
H         5.11845174823483    3.69487933133893    0.78103253078062
H         5.84738109975618    3.76613557351794    2.28174204880792
H         2.74207494075805    0.04211477925110    0.76871894448697
H         1.43844295655624   -0.42816099669043   -2.88038020224116
H         0.99103584837115    1.14605824705519   -2.40658528534718
H        -0.10009968685705   -0.15654940121673   -2.18010939202847
H         0.79971510973065   -1.15289483711042    0.94849345395639
