39
 energy: -52.266986439540 gnorm: 0.112151553357 xtb: 6.4.1 (79825abcba525fcdf90b791dcacef51065a7a4e7)
C         3.71643514605926    1.64260133382632    3.76336300557405
C         3.61293610347468    2.01777492166886    2.27923892831629
N         4.69095554536700    1.34533491071527    1.57512511687163
C         4.78523351509346    1.21041386673375    0.21468012872043
N         5.89856295148132    0.93407460293628   -0.39719446888834
C         5.55249497075087    0.65144445072996   -1.78901079643607
C         4.04276522912025    0.54662037020520   -1.95215968548546
C         3.53971403639602    1.25198819893154   -0.69192014457286
C         3.09189580222204    2.70953352204299   -1.00584122241853
N         2.28509938252464    3.42639079589994    0.00310718035945
C         2.99843802536937    4.28593187400585    0.94162040373984
C         3.59958181542480    3.57113181402571    2.18526877543634
N         5.00777483196146    4.02873551441219    2.26061078897397
N         2.52253733994533    0.46866594209238    0.02235904186833
C         1.41395429963470   -0.15685901451402   -0.48109973665534
C         0.57305848904476    0.42651888627508   -1.58906945074470
N         0.96102937985601   -1.25948030473476    0.01472511863901
H         2.79940209708492    2.04139697542464    4.20523456324843
H         4.64960509777606    1.99147411350186    4.21513976868187
H         3.65951566644713    0.54983706377462    3.78444318503057
H         2.64050754953201    1.73539038650869    1.86865534369751
H         5.54085071607322    1.41664110436275    2.13152728898079
H         5.87150140655705   -0.36540880537840   -2.04797135355039
H         6.01075126498715    1.39707374116787   -2.44252255388041
H         3.68703787650087   -0.49069101641748   -1.95152598454812
H         3.84969924395301    1.13416376850610   -2.85877672735601
H         2.60513740875776    2.81673228562941   -1.98174671645608
H         3.99224119522136    3.33441640624611   -1.06228793177570
H         1.54112360606440    2.86217710363407    0.41032588426789
H         2.33852054967829    5.09577757427239    1.28119148902992
H         3.82213417629162    4.72110574070417    0.36145723113456
H         2.96882468598422    3.88708287958480    3.02732616447134
H         5.54472380503866    3.50808974385708    1.56276306465723
H         5.31941064957599    3.80313155217228    3.20314528400435
H         3.01617698257546   -0.15151683627140    0.65638494843516
H         1.16886070001831    1.02750267126652   -2.27097680407705
H        -0.20791334887056    0.96400889466417   -1.04345040557965
H         0.20599708367440   -0.42726146952429   -2.16763102646913
H         1.46180369163234   -1.68677300953737    0.79553938251804
