39
 energy: -52.255158957098 gnorm: 0.112954204350 xtb: 6.4.1 (79825abcba525fcdf90b791dcacef51065a7a4e7)
C         4.08458590657534    1.76998802425984    3.98468594163992
C         3.68707753200024    2.02344850776428    2.52460497605067
N         4.44843418984841    1.08532295759188    1.71817192939711
C         4.52189495680543    1.18512142891731    0.35342052131385
N         5.68950346772488    0.91400964913621   -0.15001283828930
C         5.53004729438163    0.87502113100053   -1.60254482427345
C         4.05042742037689    0.90277199397943   -1.95869711778158
C         3.38556606584370    1.38426863714961   -0.66837609605465
C         2.95580292281130    2.87749973171776   -0.76372051188899
N         2.07717779370923    3.35590474162016    0.32344472031971
C         2.64863370846752    4.11366317477833    1.43146559465560
C         3.90906361131331    3.50742518956128    2.11173482762619
N         5.13790492461141    3.89044609574203    1.37598409583087
N         2.27000511304301    0.57531135623647   -0.15891672775404
C         1.45863293500216   -0.33652322333312   -0.77854684316880
C         0.98342886212286   -0.05838013764874   -2.18277259286737
N         0.89945637933812   -1.25805097781427   -0.06800819530447
H         3.55498088766871    2.37191813562940    4.72794680573432
H         5.14933575181120    1.93304753236816    4.17531642747308
H         3.78641153501402    0.75189488389982    4.25375164228224
H         2.59928015316810    1.92344871494234    2.49942352929218
H         5.37989493515165    0.74654907112217    1.95184457346803
H         6.17188502818207    0.11312011644373   -2.06120306785186
H         5.85212776893998    1.79425932679857   -2.09681681322906
H         3.65035109821690   -0.10379888543057   -2.12990245756102
H         3.88131483008392    1.45717644248072   -2.89061600388271
H         2.35859614716124    3.14166823975311   -1.64370683134249
H         3.89566678361629    3.44044817636409   -0.82721580490453
H         1.50635165755124    2.54301449258438    0.54934534692216
H         1.86330184499009    4.47372000343489    2.10989215584695
H         3.07789885940090    5.04087404576618    1.03090051187433
H         4.05345438981066    4.01663422307615    3.07433430186257
H         5.48936076641413    3.39680278881716    0.55186472615897
H         5.95640521833663    4.06771758442720    1.95479096238941
H         2.49479472630049    0.33684320787075    0.80175917998715
H         1.74734484412781   -0.31693343675996   -2.91129300450955
H         0.70112436123107    0.99838853539921   -2.17523561603644
H         0.07746498903164   -0.65622456514785   -2.32496954270485
H         1.32541441129754   -1.23470467837214    0.85991399743828
