39
 energy: -52.266934424427 gnorm: 0.113272529014 xtb: 6.4.1 (79825abcba525fcdf90b791dcacef51065a7a4e7)
C         3.45693340947568    1.41816474763809    3.62908594967622
C         3.48426115156108    2.07491644590847    2.24271588287035
N         4.55760570784655    1.43409945689536    1.50287615725226
C         4.72795845931287    1.32160855318243    0.14780112006837
N         5.87299109467712    1.31100355656837   -0.46786450718975
C         5.62405762580648    0.90011342709759   -1.84844299952724
C         4.14482433709826    0.60142990439006   -2.04730618649082
C         3.50650679246817    1.17133016928096   -0.77979982674026
C         2.84792775951807    2.54519626824824   -1.09963043716373
N         2.56674680853109    3.33260159045434    0.11844667670229
C         3.71431088683544    3.99131650168741    0.73298824133499
C         3.68332784492595    3.61838618444361    2.24260320016642
N         4.91806488895866    4.20248068357307    2.81909534579798
N         2.51189928465954    0.35168132820387   -0.07455616754738
C         1.33076872585310   -0.28340114045367   -0.34898176762613
C         0.50242599354871    0.13591449610440   -1.53770172069134
N         0.74146217090579   -1.12553480867566    0.43222603947977
H         2.65285869192812    1.85598035028410    4.22659695186472
H         4.48506804113085    1.48866498237488    3.99595039187538
H         3.20249901021340    0.35986451460069    3.51471066604595
H         2.50141502203774    2.03674053974435    1.76680277045125
H         5.47789614584026    1.56791728947399    1.91778345643951
H         6.30758722173913    0.08988144997132   -2.12973937940647
H         6.01078680745629    1.70728599549397   -2.47450407691452
H         3.89945970813528   -0.45039597508937   -2.23708441192421
H         3.78076538431973    1.15805852223568   -2.92026772191208
H         1.93181038396070    2.45207803106132   -1.69366310227827
H         3.61749201425800    3.03771707266134   -1.70747976065464
H         1.72334971199241    3.90221885452161    0.07506881917645
H         3.84599692889339    5.05303965117575    0.48388504097522
H         4.66148121032559    3.56062732499221    0.38396650668167
H         2.80716271123828    4.18638721881228    2.58385057685740
H         5.72968018791334    3.91482571171751    2.26690616698260
H         5.07832405823327    3.94958226347932    3.79210340957600
H         2.94999565630998   -0.08867672401470    0.72822149271934
H         1.03091998750536    0.33145477979855   -2.46701195526860
H         0.05065103217710    1.06203584869166   -1.17067135735003
H        -0.27538722850518   -0.60006813268839   -1.76517616477265
H         1.41594657423007   -1.39279660965399    1.15102142364802
