39
 energy: -52.267314271888 gnorm: 0.123353503768 xtb: 6.4.1 (79825abcba525fcdf90b791dcacef51065a7a4e7)
C         4.02012440662634    1.38416643783815    3.67121957906524
C         3.74479537274345    1.98646380209922    2.28719524551593
N         4.84113347878666    1.70493658135361    1.37677614235400
C         4.79971743687380    1.27803231262043    0.07526161286535
N         5.91438812836616    1.05157754061978   -0.55440803139028
C         5.65374298197937    0.68741018591433   -1.94589708693756
C         4.15879400331157    0.40465502963575   -1.99135712643977
C         3.53883607662184    1.13484008821894   -0.79917847289103
C         3.06653210654505    2.55369893500191   -1.23195387474902
N         2.57270316872813    3.42683554623456   -0.14726628906642
C         3.49067395393328    4.10773560447379    0.75947221939117
C         3.33488980808772    3.48360456277315    2.17551106807300
N         4.19496311144011    4.29215079879731    3.07251276432924
N         2.53181398040690    0.36504182903352   -0.05637695618679
C         1.25473544340095   -0.04082031095344   -0.33576004166077
C         0.55019978605018    0.37389762794590   -1.60330529479487
N         0.63707125091353   -0.83790383818462    0.47040729781011
H         3.39641874762212    2.05804426809967    4.26461487104724
H         5.08455991145715    1.36566808324166    3.92272600986195
H         3.64543949962485    0.36797356584837    3.82864008403201
H         2.83677513114848    1.52531679580055    1.89124084785881
H         5.73008633638608    1.57469699223292    1.85614053849734
H         6.23412941470496   -0.20881887171006   -2.19637919286139
H         5.96407100683958    1.55062944475547   -2.53884608796650
H         3.95545895953349   -0.66314034184931   -1.84635651996555
H         3.67193912840743    0.66191749013526   -2.94068559403575
H         2.23696933607114    2.47865130619160   -1.94400044857180
H         3.76991254612781    3.16087474139089   -1.81580331627066
H         1.86783312751186    2.95107956852031    0.41351763170462
H         3.21456048483061    5.17089651790845    0.76946654487545
H         4.49689007596763    4.13784009943720    0.32236377895463
H         2.31509285595747    3.62117932796034    2.55999467744393
H         5.16188921679411    4.10275845432582    2.79762712855375
H         4.09105974720035    4.06288383277919    4.05893359424551
H         3.00223246713692   -0.14758941446011    0.68268412260420
H         0.93760532562805   -0.21453849234332   -2.43084339379424
H         0.65362020868157    1.45454837251788   -1.73750978740182
H        -0.50838459805762    0.11217776089842   -1.50681549893665
H         1.02604009838584   -1.25427846373874    1.31796867399588
