39
 energy: -52.264126789897 gnorm: 0.122316778981 xtb: 6.4.1 (79825abcba525fcdf90b791dcacef51065a7a4e7)
C         3.88975596193814    1.53302269738461    3.75976337398072
C         3.63709560220061    2.01537444455632    2.32533279441887
N         4.64862987324967    1.37264094699904    1.50449796303528
C         4.68868177610268    1.30245453036678    0.13651685807755
N         5.84760232167146    1.25292324126274   -0.45059997458199
C         5.58757477536503    0.88098257578055   -1.84014715228168
C         4.12235164090911    0.47956542579907   -1.93435423245646
C         3.44248841158555    1.19005505092172   -0.76311623117791
C         2.80328968622238    2.55300590518468   -1.15974695696172
N         2.41036430564711    3.34799532448877    0.02193962501798
C         3.52304005125664    3.94956235523911    0.74894702823396
C         3.60924742144379    3.56977543581814    2.25470413407660
N         4.72746145885455    4.39485932571648    2.77134624755310
N         2.54031506825719    0.21242583673280   -0.13960897382644
C         1.25550036448749   -0.12233050959389   -0.47262235029225
C         0.62697447630064    0.22065575665806   -1.80015691831453
N         0.54661916135912   -0.83085261411176    0.34115945723065
H         2.98201022446303    1.71951201592615    4.33981290665894
H         4.72546535711591    2.11269339108341    4.16249444297562
H         4.05370575384817    0.45120093403094    3.73526665975590
H         2.68856751707650    1.62141056215201    1.95247339679454
H         5.58849841883555    1.31695710260430    1.89248788655925
H         6.28623053220516    0.05268585916699   -2.00932428600719
H         5.92497926609449    1.65100912155193   -2.53746832220382
H         4.03017861779398   -0.60056186325671   -1.76886574434731
H         3.73826400019682    0.68741630513618   -2.94118632772315
H         1.84771879701046    2.35825249906748   -1.65951914768067
H         3.49421247919658    3.15526338117618   -1.76323539248460
H         1.79906579655910    2.82639367535651    0.64796676442678
H         3.57755719356935    5.04638888897218    0.77442441802211
H         4.49219333715642    3.57260104419311    0.39811510984248
H         2.78599784701195    3.86299019581494    2.92030576089236
H         5.64417272756789    4.32222482954231    2.32330345828005
H         4.87905185589624    4.25372643660036    3.76808450880239
H         3.01505346074529   -0.17566967361066    0.66927973184265
H         1.47810067396260    0.34138537904916   -2.46511404286104
H         0.10831065625383    1.15771867629130   -2.02244855283017
H        -0.03889142282476   -0.57114648162051   -2.15803996970561
H         0.86476052219498   -1.06489993064929    1.28298364672221
