39
 energy: -52.265045847684 gnorm: 0.117710425883 xtb: 6.4.1 (79825abcba525fcdf90b791dcacef51065a7a4e7)
C         3.69208599389492    1.44615267838992    3.71906172108037
C         3.62767862490692    1.99553015890339    2.28793362423402
N         4.74457569834790    1.47357005439297    1.51970426813073
C         4.75309279236559    1.36549834616183    0.15363304821712
N         5.83169394677118    1.05647997262708   -0.50316491486029
C         5.62279091188128    0.78676501912497   -1.92457580082150
C         4.11414494507456    0.64346741892129   -2.06720358410619
C         3.52628951717348    1.17570405440050   -0.75954990908762
C         2.94359664215404    2.57009218315090   -1.13328344575879
N         2.43709023492422    3.53641905658776   -0.13706794188182
C         3.42653775714680    4.09391101039221    0.77871930952468
C         3.52944250791912    3.54764752205546    2.23129670481703
N         4.63665171127249    4.27321540209843    2.89892247785030
N         2.56422202142236    0.25676164349022   -0.13632611753094
C         1.32617668966364   -0.29601861616351   -0.32443854211043
C         0.53837168923209    0.45379758593093   -1.36950856869927
N         0.95135159923608   -1.40250087245457    0.22507044419019
H         2.76504395989794    1.56362791112516    4.28653919688543
H         4.45200835224479    2.01216854624986    4.26565541673797
H         3.96134455314003    0.38803317824412    3.79456603471901
H         2.70701217446344    1.62541759588592    1.83041074448156
H         5.67342330638961    1.49911100831625    1.93633305002500
H         6.13797924416974   -0.12559078145958   -2.24861915331928
H         5.88177480681591    1.62220271595358   -2.57880105752426
H         3.85801784038844   -0.41544926995070   -2.19230999967744
H         3.78436114594622    1.23403413801507   -2.93144300466302
H         2.08021801761917    2.44413262741913   -1.79625282584205
H         3.72614295679167    3.01647732111137   -1.75989995824926
H         1.68655294562921    3.16089661944298    0.44028879505015
H         3.16073810552274    5.15846759473745    0.83086800396592
H         4.38728356973121    4.11194545828976    0.24854651156696
H         2.58325478117919    3.92029143393634    2.64675498966394
H         5.44298264825394    4.41257079765898    2.28509175386980
H         4.79386699485626    4.15323905994711    3.89755871515707
H         3.09966380281410   -0.38992858910240    0.43410307595846
H         1.08478568004621    0.58828972938084   -2.29929512154188
H         0.12223962231070    1.41945136581486   -1.06807941563288
H        -0.36305787690645   -0.09703088985214   -1.65659947922710
H         1.64035290329336   -1.88954543414081    0.80047436895466
