39
 energy: -52.265421585262 gnorm: 0.115820503600 xtb: 6.4.1 (79825abcba525fcdf90b791dcacef51065a7a4e7)
C         3.89830255722428    1.70087455182623    3.90745164312045
C         3.68734712284859    1.97425004910050    2.41250843774541
N         4.69927246784090    1.23035337748599    1.68264366298152
C         4.79273555386520    1.14155169902665    0.31835575115804
N         5.93995116268454    1.01684700617420   -0.28047763710722
C         5.59851490749814    0.90596865538678   -1.69748956939315
C         4.09917776672453    0.68344019387550   -1.83662530948252
C         3.50010478468812    1.17952008533507   -0.51987770357647
C         2.93792043910250    2.60774124468327   -0.77999122931227
N         2.06326849431222    3.30276173992867    0.18681390512371
C         2.77047782139308    4.12017269187970    1.16669362229944
C         3.76634608108984    3.51330710973696    2.19573921674254
N         5.02810772854891    4.04124512389775    1.62361673515452
N         2.44965159448430    0.30802174390613    0.02369901631546
C         1.35393807273294   -0.15266906128462   -0.65518567222365
C         0.97142371496697    0.36796538698728   -2.01814383642034
N         0.52126157107283   -0.98277275012312   -0.12195525038836
H         3.07113496064490    2.02269477186233    4.54578036620780
H         4.81773694127709    2.15418699685802    4.28924852406632
H         3.99391393839557    0.62022312779801    4.05191240817021
H         2.69903698556740    1.67408765812480    2.05602167647289
H         5.64841333800125    1.36411834108353    2.02648709841176
H         6.07731632635260    0.05175133179044   -2.19132980983005
H         5.89334652453995    1.87048039339592   -2.11681153780941
H         3.93774812616990   -0.37812139919644   -2.05930155134692
H         3.77433737846553    1.21400113089592   -2.74073812573840
H         2.35629155177677    2.56484791090639   -1.70772225556232
H         3.81578769186290    3.21212185112747   -1.04144837155594
H         1.45455508432713    2.65395465082404    0.68298067935839
H         2.02011196858038    4.51195259998305    1.86677165361976
H         3.31098099266087    4.91997451894775    0.64456881906436
H         3.65939493621464    3.92153258912724    3.20996487808055
H         5.11113079932585    3.63645334348700    0.68786652877986
H         5.80757999968880    3.96813679036031    2.27435743078743
H         2.80079912463497   -0.34423514919941    0.71763847046941
H         1.83656768214907    0.43443808640288   -2.67256473925843
H         0.48445191840326    1.34658310885606   -1.97717456594599
H         0.27180275262491   -0.43674132472621   -2.26590599961491
H         0.61959763588307   -1.37737505007243    0.81487126520566
