39
 energy: -52.265012355373 gnorm: 0.122914958004 xtb: 6.4.1 (79825abcba525fcdf90b791dcacef51065a7a4e7)
C         3.87281841060542    1.67678191309382    3.87971076650729
C         3.74500139566147    2.07953047627502    2.40473684910503
N         4.69433784705152    1.36913966056286    1.56558068435517
C         4.56098465207883    1.24760090975191    0.20714484025400
N         5.63627748841237    1.09670183362255   -0.50785949000710
C         5.32185225990814    0.76925936229837   -1.89736075172597
C         3.81768052683245    0.53662582071334   -1.88191503786823
C         3.26364267115090    1.20636487494367   -0.62362268799879
C         2.81731180728960    2.65002593182008   -0.99799885637402
N         2.64632592846232    3.74638582333595   -0.02252946692378
C         3.84412087802992    4.10484265874222    0.72931224865029
C         3.81622070950952    3.62157449475803    2.20736767448044
N         4.79458591308843    4.47469863256218    2.92365390463625
N         2.23859240991351    0.39065195184102    0.04144973776159
C         1.33463898943224   -0.40997635292065   -0.60319829186325
C         0.72487060491558    0.05814824635641   -1.90091716708563
N         0.83832820838130   -1.51845566383570   -0.16535564496225
H         3.01604439865530    2.06505004010708    4.43686803990161
H         4.79809140311420    1.86562979152499    4.43182218293649
H         3.81291484454379    0.59274613140928    4.01789889944551
H         2.76019828083584    1.69497838413805    2.12865754831953
H         5.68329637060963    1.51943949099036    1.75626576897304
H         5.99570022637155   -0.05640553527626   -2.15624801318698
H         5.70259641159654    1.59461987338997   -2.50304499763857
H         3.61687496117001   -0.53825563666725   -1.79906432717103
H         3.44783017204396    0.97557866704369   -2.81731190161833
H         1.80662246725544    2.68475182257376   -1.42003916985186
H         3.58478354639153    2.99880948523525   -1.70058254871405
H         1.87919359590865    3.54936613415800    0.61806038693639
H         3.85755883340147    5.19928933051886    0.63627679617304
H         4.67755860204261    3.78385271458805    0.09151290359947
H         2.82483391121732    3.99062445174453    2.50350055124326
H         5.70458594670680    4.09233342381150    2.65518702726471
H         4.79672146315298    4.40153479421878    3.93904930337891
H         2.59076992412728   -0.16420044646831    0.81501643132870
H         1.50744622400594    0.16273434760679   -2.64777496095828
H         0.15221447563201    0.98814510336289   -1.84022573024644
H         0.10518708700913   -0.74915554429360   -2.30423017977889
H         1.39862348418231   -1.79143010757789    0.64370494609601
