39
 energy: -52.266448861385 gnorm: 0.113095207664 xtb: 6.4.1 (79825abcba525fcdf90b791dcacef51065a7a4e7)
C         3.97547209137727    1.70323933974253    3.84271853438064
C         3.60303522776862    2.07806607548560    2.40227163996605
N         4.47925094518379    1.20482490772798    1.64084295930856
C         4.63505430723278    1.18894682419916    0.27945549961930
N         5.81419470104638    1.09342036409299   -0.25976522842192
C         5.65556812487957    0.91211791367995   -1.70155667551014
C         4.18694449318336    0.57753614284308   -1.92084918726680
C         3.47054780114286    1.21513273637963   -0.72960851217126
C         2.94773883091449    2.65957806678823   -0.98214459829505
N         2.21550742202730    3.28158221532480    0.14023221468876
C         2.95367339569889    4.19348263668204    1.00742226054679
C         3.74306402875396    3.61691050053118    2.21713349053176
N         5.14127288825995    4.09886511133158    2.11312931181834
N         2.40997487661945    0.40396910101738   -0.11671734319636
C         1.27941250744658   -0.17332746814822   -0.62883644759541
C         0.70164696880613    0.17667729067911   -1.97743426633946
N         0.69118515278560   -1.09469587885683    0.05805933540239
H         3.39923005428459    2.08677366259873    4.68893634571995
H         5.03825450568051    1.89165035989006    4.02052586693283
H         3.81377363957586    0.62108006365059    3.86727182809984
H         2.57227067208999    1.78043034588720    2.19520980596517
H         5.42731656528463    0.99548405746379    1.94798748382961
H         6.19882580398103   -0.00279970356581   -1.96728787492826
H         6.07619918079860    1.80959642853516   -2.16051344534495
H         3.91133195737849   -0.48251366383786   -1.97460233473332
H         3.74504113248432    0.98406708804257   -2.83948414974969
H         2.33660474687786    2.74912038567715   -1.88730433882315
H         3.86026010416844    3.21347696235470   -1.23667872030992
H         1.53792576911743    2.70017453154418    0.63065277919998
H         2.19845678306369    4.90164091013343    1.37458623820563
H         3.67633956682339    4.85247552265704    0.50950366152238
H         3.29143132607017    4.14762833226639    3.06631354408474
H         5.74194669101360    3.42581708661509    1.63086900728141
H         5.52174573048418    4.19777936074985    3.05219357532788
H         2.78167440297918   -0.27306067970854    0.54189161800092
H         1.32716987277575   -0.23857981515562   -2.76320907971306
H         0.72832054931088    1.25597584105472   -2.15326320870814
H        -0.30598451585515   -0.25120530080747   -1.97936991350135
H         1.08225785440207   -1.32934635672149    0.97185700386731
