39
 energy: -52.259443497266 gnorm: 0.107305619945 xtb: 6.4.1 (79825abcba525fcdf90b791dcacef51065a7a4e7)
C         3.56934322757566    1.83120018031538    3.94149342357436
C         3.54060421506452    2.24488575717475    2.46429002988915
N         4.39909146504326    1.36530129929881    1.69007520522837
C         4.52737976352697    1.41863277169753    0.32677022094328
N         5.72243708431649    1.25087124542108   -0.15691400971314
C         5.65836353258937    0.99486242651770   -1.59467254474703
C         4.19341438350358    0.82404002518277   -1.97101444566517
C         3.41007252986893    1.19224868781084   -0.71021871207646
C         2.63636458040260    2.52464280389442   -0.93299197701503
N         2.34136458015311    3.21322207761459    0.34043462361366
C         3.46774123907161    4.06382552645774    0.70951372064525
C         3.92597634661803    3.72074192697218    2.15564252473796
N         5.36275709439350    3.99661421991809    2.39572731887896
N         2.49247537815534    0.16429337236961   -0.20055191257954
C         1.34214718961039   -0.40966443644222   -0.67068596109988
C         0.72151160020746   -0.07058220186766   -2.00292734283948
N         0.73588422697990   -1.32911430017106    0.00297131716665
H         4.62949388996747    1.70453200991826    4.17659722684581
H         3.00228726824626    0.91381381931368    4.12444266058587
H         3.20866534544043    2.63322335902498    4.59302104062049
H         2.58375848308544    2.10955215384419    1.95432113593116
H         5.26955328813069    1.00408400765691    2.07583166805738
H         6.25794959052002    0.11491900429581   -1.85737456126189
H         6.15535468355580    1.84455980185029   -2.06801560374025
H         3.82533410888817   -0.15070985749143   -2.31297473085651
H         3.93434486668294    1.63356819106215   -2.66526463142560
H         1.71122926569230    2.48195513694124   -1.51875580154601
H         3.27772777593178    3.14706894007983   -1.56980092436865
H         1.52769499373722    3.78956505446264    0.13202466089410
H         3.25407597986976    5.11015982629067    0.45225635299856
H         4.24320089754544    3.79060309078451   -0.01743385569725
H         3.30572685289615    4.25160200488077    2.89063805856729
H         5.92521594156320    3.47779796307601    1.71686989435968
H         5.60097258838820    3.81153691544937    3.36803646474938
H         2.90964783424999   -0.39757191417497    0.53468284263751
H         0.54327916252012   -1.04805422499201   -2.44331474590328
H         1.31198059432769    0.60841418590658   -2.62487824193627
H        -0.27784808896640    0.30740679312915   -1.76457257279541
H         1.17920138325089   -1.51801127161888    0.90342271167463
