39
 energy: -52.261307009360 gnorm: 0.123805350039 xtb: 6.4.1 (79825abcba525fcdf90b791dcacef51065a7a4e7)
C         4.04724865296412    1.85636806213632    4.00365595609625
C         3.63585879531669    2.06435084198570    2.54023765998846
N         4.43213093434236    1.13641777844030    1.75603826515412
C         4.58297023849969    1.20861542117457    0.39591414014832
N         5.77307046043473    0.96584740965987   -0.06774687038939
C         5.69711378512573    0.94573838052432   -1.52741181846156
C         4.22079580206317    0.76120484802183   -1.84884941922894
C         3.46638506213436    1.35134913131608   -0.65662370658024
C         2.80583460217387    2.74319943053234   -0.88012281271064
N         2.13074766693054    3.13164482515076    0.37532512674070
C         2.67978322707438    4.09678662072265    1.32165025085169
C         3.88693070133261    3.54509498834405    2.13245577656144
N         5.09793820025977    3.73602144969050    1.29873335956646
N         2.38602228801930    0.47543926070557   -0.18330019274532
C         1.31581174469089   -0.18542492771736   -0.72331547112999
C         0.90204939574717    0.34631353190451   -2.07279217227469
N         0.78668659186969   -1.25264536056690   -0.22549612338172
H         3.55096694146904    2.44654955037164    4.77865809953257
H         5.11351992372600    2.05393371936397    4.14737098484136
H         3.79125934500864    0.80141084411781    4.14276992540880
H         2.56850002069282    1.86904887671583    2.41163129576663
H         5.34906903360936    1.02006100531002    2.18344369201329
H         6.24029347850384    0.07850348162316   -1.92196938513473
H         6.10760027570722    1.87969796937157   -1.91761665826828
H         4.06474678336098   -0.30342409502290   -2.06044142484380
H         3.88886852228887    1.36949140493821   -2.69987699506729
H         2.10189362406898    2.77767968455062   -1.71922654038359
H         3.58462003783305    3.47435398864341   -1.13150486098343
H         1.66505494525887    2.34658135136155    0.82750845169427
H         1.90317070674708    4.34294858213385    2.05848601657750
H         2.89215335557014    5.06262512718319    0.84573443693861
H         3.95968519297408    4.24612796633840    2.97507065583146
H         5.18790693153095    3.38724321454206    0.34132172744355
H         5.87673630220459    3.33528227329821    1.81764272976758
H         2.73351700940071   -0.05921371748201    0.60643979009002
H         1.78860227723872    0.60604930254183   -2.64526116147804
H         0.18814908128035    1.17367351970844   -2.02447601559644
H         0.44177168840663   -0.47502458671266   -2.63132292009867
H         1.20320345434969   -1.37053934594026    0.69951176858285
