39
 energy: -52.263978400872 gnorm: 0.116481145251 xtb: 6.4.1 (79825abcba525fcdf90b791dcacef51065a7a4e7)
C         3.53862480112785    1.59991293762016    3.78540934879777
C         3.60093806416953    2.17064310807890    2.36256863587519
N         4.53479723490828    1.35076685745719    1.61037998464612
C         4.62912329761664    1.38780980082503    0.24376626881786
N         5.76293280094411    1.30190711224566   -0.38659324408636
C         5.51449966755675    1.07346914249155   -1.80887754090243
C         4.04971369683258    0.68362987613758   -1.94786296085108
C         3.39933883313396    1.21043080602499   -0.66790151565195
C         2.79397386422530    2.59392531816364   -1.04605783923131
N         2.39809215083495    3.47761287638639    0.06980760244243
C         3.48858644092838    4.09243914255584    0.81899438623972
C         3.87235270464122    3.70050569532620    2.27435891481315
N         5.30743785422233    4.02363790399039    2.45929495165702
N         2.37858044353274    0.34810228164127   -0.05726351902926
C         1.23004133165000   -0.26320694776425   -0.48254871318280
C         0.80082824642783   -0.18027820661458   -1.92613153769820
N         0.63619648085334   -1.15365873335201    0.23939372823992
H         2.62019978873240    2.00005458531649    4.22315380698314
H         4.46999353287785    1.89516481135479    4.27734353154423
H         3.57404160648683    0.50654130122855    3.75221194817556
H         2.62722087220786    1.91958922324761    1.93503619123623
H         5.48627994690938    1.34935395972108    1.97324142758303
H         6.30783519329421    0.34808178701709   -2.02624393465252
H         5.91559130906501    1.98877861663393   -2.24975569892765
H         4.00093921538801   -0.41007095145118   -1.88464256011997
H         3.66584920562124    1.08113536243026   -2.89605788725663
H         1.89701428019868    2.50910482840961   -1.66982530228839
H         3.47153280429090    3.23524564535454   -1.62390626072277
H         1.62285585374222    3.07096530015111    0.59068240389749
H         3.39132254688258    5.18657663290239    0.81174520175940
H         4.38299200438376    3.82673493020058    0.24117008994754
H         3.29066596470350    4.20101844001147    3.06040459805693
H         5.81977084015941    3.29299046490932    1.95924805582707
H         5.57232762060075    4.03900107648047    3.44213913562274
H         2.62861641371563   -0.24779772502179    0.72547578035262
H         1.53922739600440   -0.68124914083634   -2.54657834765437
H         0.72352587370960    0.80022210121420   -2.40483409835679
H        -0.17495996508965   -0.66628920481151   -2.02632704441063
H         0.89686371079960   -1.23404885542327    1.22357608168589
