39
 energy: -52.262755553569 gnorm: 0.115477396843 xtb: 6.4.1 (79825abcba525fcdf90b791dcacef51065a7a4e7)
C         3.66470614157541    1.49313763988707    3.59347079131947
C         3.59931918500884    2.02435805321527    2.15554833861026
N         4.76953306102772    1.62224836966973    1.39463765706521
C         4.77378287837340    1.31928089691785    0.05818889895926
N         5.85956619525879    1.17553647843187   -0.64228843866098
C         5.48490860580806    0.79019914719581   -2.00167888260802
C         3.97603021021405    0.59252132022175   -1.96852770289164
C         3.42785116901670    1.21922721986454   -0.68573877021180
C         2.85948051789056    2.63311656210728   -1.00416885898868
N         2.58337054659150    3.69164509260157   -0.01116214991850
C         3.66376136205147    4.21448042302074    0.81821645502635
C         3.56040126476113    3.57816472397102    2.23362922457822
N         4.58831681719635    4.19786512775739    3.10394306071432
N         2.51446653766958    0.28092812674959   -0.01958544134422
C         1.31499479152963   -0.29164566338514   -0.34690080405353
C         0.73320261059777    0.04377423789397   -1.69747244979163
N         0.76735928024120   -1.22480314265554    0.35742116818464
H         2.80580555824472    1.75153720164106    4.21857678585842
H         4.49748221674448    1.90098445380447    4.17378588374962
H         3.71074621067302    0.40524099176437    3.70382995756531
H         2.73249865533313    1.66744223847866    1.59414787493862
H         5.75022346107432    1.54338061319748    1.65734659362323
H         6.18532177673161   -0.04488542969718   -2.12362706624908
H         5.83930507475897    1.50600354484714   -2.74670686462053
H         3.83417482801851   -0.49456657832689   -1.94256195543076
H         3.44613565652111    0.98955899229232   -2.84374712222267
H         1.92694705633275    2.48082451540880   -1.55915114049795
H         3.62277962717366    3.05986357578788   -1.66715312518711
H         1.76943153953176    3.49775789395490    0.56985004468983
H         3.51231531586052    5.29124672305762    0.97406283192000
H         4.66208313878796    3.99673266811085    0.41774111323539
H         2.53735068721510    3.91843958872537    2.44415433710585
H         5.50393038473936    3.97544810344792    2.70574696783617
H         4.65235551548103    3.89371150925796    4.07336295198731
H         2.89430005327691   -0.17481002162167    0.80401934962883
H         1.46240073886334   -0.15373307073877   -2.47876648821040
H         0.46185353608037    1.09914313137494   -1.79275537416178
H        -0.09836283855494   -0.62495855575835   -1.94181609915842
H         1.37287520825975   -1.49738878800572    1.13335441996094
