39
 energy: -52.263989587409 gnorm: 0.113706548794 xtb: 6.4.1 (79825abcba525fcdf90b791dcacef51065a7a4e7)
C         3.77114732586500    1.69594198573958    3.87669941404217
C         3.62102523136733    2.04662756328293    2.39057205522400
N         4.69999254811069    1.36679405271584    1.69506240351835
C         4.78266262630272    1.16652309798618    0.34193277346646
N         5.95055170506554    0.86068335833835   -0.14051256739787
C         5.78689172315777    0.71654974771197   -1.58593169503568
C         4.30644164459856    0.67739252744163   -1.93753347911984
C         3.61158074262923    1.14973023513052   -0.65969413410073
C         2.91745650480066    2.50966970596238   -0.96347393187888
N         2.10814161233056    3.16938165591570    0.08178739795461
C         2.73418817686089    4.15265004602343    0.95912366862246
C         3.63582093440873    3.57270111834309    2.08592971713150
N         5.00992912990780    4.03170746950834    1.77092976162950
N         2.59646850756145    0.25494960487935   -0.08754754369915
C         1.36018552335204   -0.04352428141337   -0.59373555157207
C         0.58767469259794    0.80303757785032   -1.57434376077933
N         0.78722481298975   -1.10634300414745   -0.13669138198829
H         3.21896188674843    2.32903528348829    4.57635801836488
H         4.80994666011866    1.91758055859996    4.13821978844722
H         3.48500920549048    0.64602913454689    3.99342957272153
H         2.69925163304012    1.54720968184912    2.08259086731639
H         5.54506988004214    1.00237193424232    2.13098737123999
H         6.24897285111641   -0.23857588205453   -1.86347859754499
H         6.18492881507898    1.57871275153136   -2.12563616646654
H         3.97486120328282   -0.34231820002521   -2.16731969961636
H         4.01115504960560    1.35265056963001   -2.75071770544913
H         2.27395634731082    2.42127283008493   -1.84603293337195
H         3.66867568528311    3.26596879499101   -1.22418086077924
H         1.63765530407106    2.45534091215873    0.63536898621866
H         1.88208564130639    4.71329307742098    1.36686171911289
H         3.38639437651518    4.81377470179724    0.37433121519622
H         3.36505150974201    4.13683205429829    2.98880317732117
H         5.47249399550415    3.52014103817926    1.01547546516258
H         5.65423515844051    3.96993200447902    2.55670252553442
H         2.86675797463195   -0.48841034570930    0.54857760188507
H         0.98448942206864    0.68751227433005   -2.57950613444538
H         0.45859098576108    1.85691853285109   -1.31131337352371
H        -0.40167629641833    0.33634592060395   -1.53201187402683
H         1.24097256495527   -1.90510954966968    0.30952590066164
