39
 energy: -52.261799400893 gnorm: 0.117296283706 xtb: 6.4.1 (79825abcba525fcdf90b791dcacef51065a7a4e7)
C         3.78214247770940    1.67986310413283    3.84049495915340
C         3.68184702626684    2.01348123560694    2.34626227510315
N         4.62617254967792    1.17522597825994    1.62817092324083
C         4.80800690331702    1.18774085604842    0.26998011943525
N         5.98423027676578    1.08755143292986   -0.27473724708033
C         5.69395822813393    0.94581233785344   -1.70037665231755
C         4.22610604111010    0.60142323089100   -1.90941166073630
C         3.56396446683380    1.13429501999043   -0.63802495282384
C         2.95324689695594    2.55600066045390   -0.80920635015241
N         2.05495923822258    3.19989864060510    0.17123045782160
C         2.60995586105751    4.08571696251343    1.18896057302438
C         3.75108023452729    3.54839976801276    2.09896037761291
N         5.10299117156044    3.99900096008671    1.68983874339701
N         2.62235733097255    0.10966469836870   -0.16691390592911
C         1.33838529100430   -0.11614704429801   -0.58420686128533
C         0.85329793544934    0.52422289781591   -1.86078392736872
N         0.54002901375015   -0.83503926795577    0.13173880136310
H         2.96788399231569    2.12548098410616    4.41811583068403
H         4.62888755855603    2.16780501739575    4.33197850443132
H         3.94559223441725    0.60182658432998    3.93504330363771
H         2.65474649896708    1.77257062567640    2.06172091329131
H         5.53382495004713    1.41638904666135    2.02186784860442
H         6.33674203044003    0.12804748275402   -2.04809183036096
H         5.95539432165347    1.88294430418842   -2.19683846881879
H         4.08254672534747   -0.48339708632602   -1.98091595717871
H         3.71648886638471    1.03623597086430   -2.77870125349587
H         2.51784866323739    2.49196641495372   -1.81277241239199
H         3.80043556256224    3.24941560877302   -0.88492780722306
H         1.22858953175643    2.68416916386266    0.46922428875870
H         1.79049189351696    4.42653363429260    1.83624138721667
H         3.05359117990274    4.94814189733911    0.67529542682291
H         3.62763070042518    3.84989011208746    3.14805716370200
H         5.45963211167929    3.49504838438965    0.87423056324796
H         5.68866919701602    3.85595517772251    2.51014628241280
H         3.01778476599001   -0.58553286701979    0.45809256381613
H         1.55586370358316    0.39810858370668   -2.68033010599027
H         0.64066236605591    1.55866305500724   -1.57577105848140
H        -0.04251738216441    0.00564056612045   -2.21714855335754
H         0.84176923122204   -1.14637400244353    1.05642707447609
