39
 energy: -52.272969753458 gnorm: 0.102589937666 xtb: 6.4.1 (79825abcba525fcdf90b791dcacef51065a7a4e7)
C         3.61252192599539    1.57377994538123    3.76103461583157
C         3.54151581214328    2.04868540348539    2.30380625434320
N         4.58262032706870    1.40740171119363    1.51962872894693
C         4.61039331374965    1.41372914187682    0.14955892979549
N         5.73408756264040    1.23088716649541   -0.47824392622254
C         5.42514832444506    0.97133749633648   -1.88323007040096
C         3.94782769394033    0.61530175703376   -1.97070494435295
C         3.35289410809778    1.28693986177291   -0.73225257010032
C         2.81618528077930    2.68001123458674   -1.17363880068115
N         2.58606238184178    3.55893634461351   -0.00859982265274
C         3.68719752912342    4.04788214008407    0.81414155083714
C         3.65832904961888    3.60054909943401    2.30344811636103
N         4.91449951662732    4.16114079681210    2.85649228556687
N         2.43596302812485    0.38519455081169   -0.02194999717480
C         1.39817307403716   -0.38512502510485   -0.47284725889430
C         0.90254851157387   -0.20003579696629   -1.88533821563171
N         0.80446944718448   -1.21915412854957    0.31370753186551
H         3.72105838736474    0.48709631742760    3.81179462956139
H         2.68322322608003    1.90856608435474    4.23108013534819
H         4.44884958008309    1.93647151810566    4.36669857234865
H         2.58795786013703    1.74935900677462    1.86214105513366
H         5.48618572356365    1.35896147433462    1.98676134597676
H         6.04601001016868    0.10933624906688   -2.15581187439462
H         5.62986744809050    1.88473718275208   -2.44610713093889
H         3.77012002605637   -0.46239932962358   -2.06836566108703
H         3.58407221277763    1.09564076535047   -2.88797947928395
H         1.99103538169083    2.52689014190711   -1.87826524906283
H         3.63455587124890    3.12803123703655   -1.75142278761761
H         1.69817072462220    4.05153288595341    0.07301620414729
H         3.72865152172594    5.14151174717196    0.90851056636504
H         4.59927186085408    3.65500371005442    0.34701425612635
H         2.85336022720351    4.13298720737210    2.82811481210087
H         5.70108536077727    3.60685357938843    2.50946770956679
H         4.91247441589738    4.13221057873085    3.87410923040744
H         2.78404789791081    0.07379956847697    0.87925236984934
H         1.70715676346611   -0.53766694614426   -2.53323496294433
H         0.62757101905212    0.84961052750084   -2.02369511917672
H         0.08819144526045   -0.92495930562343   -1.98391278689394
H         1.20365983955518   -1.25910613363333    1.25289641178707
