39
 energy: -52.255698826324 gnorm: 0.123213833335 xtb: 6.4.1 (79825abcba525fcdf90b791dcacef51065a7a4e7)
C         3.85169387178280    1.88524261591603    4.04645302218753
C         3.66491339720931    2.13144936842514    2.54359347318482
N         4.53616186847532    1.35708474578737    1.67678134166872
C         4.66950495866259    1.11044268744823    0.33540521175409
N         5.82306460678107    0.91357717552657   -0.23098729913615
C         5.61591401546026    0.70711110739147   -1.66320793175778
C         4.11745850149377    0.69092760266888   -1.93015119954573
C         3.48279357393614    1.21695388386388   -0.64201115214459
C         2.91543725783445    2.66465060914140   -0.71821498100838
N         2.10750086054091    3.23601942952816    0.37885300038578
C         2.76461528899114    4.21231472842879    1.24112794770469
C         3.83514956420889    3.64312000587336    2.21526756764268
N         5.15356681716096    3.97538001333637    1.62411245028062
N         2.49830267643551    0.24459686953843   -0.14831438397690
C         1.42338854217352   -0.29492191611906   -0.80191035572946
C         0.68520447917122    0.54653615587176   -1.81288268646577
N         0.93383067315104   -1.45280140117108   -0.50796275547069
H         2.98245461977371    2.40100743072381    4.46316374620475
H         4.69844501069572    2.41195623288120    4.49612611466027
H         3.87371224904161    0.80886294252830    4.24327765402544
H         2.63464364352781    1.91546186609342    2.25062447615941
H         5.49505082394200    1.27273642464085    2.00905697810651
H         6.05455966777802   -0.27867011348342   -1.85978259448225
H         6.12769502089669    1.44301079482431   -2.28736443528709
H         3.64346318874597   -0.26784050603913   -2.17232763797872
H         3.75105782117448    1.39231086548492   -2.69057755997347
H         2.42323536412454    2.74236550193408   -1.69418350265723
H         3.85938665962600    3.19326290375592   -0.90210422808364
H         1.60080790724231    2.53982463312699    0.92313158826435
H         1.95127863394941    4.75009512994011    1.74701863194987
H         3.24993840870217    4.81770860958235    0.46498319798556
H         3.83953580468158    4.23505894188714    3.14064821153554
H         5.40703124370305    3.65835644258825    0.68516117254064
H         5.89624663072380    3.81182215972457    2.30091436109829
H         2.98619949706679   -0.55003038345056    0.25270912972882
H         1.28760780850412    0.77889277108650   -2.68711381133099
H         0.14808170142417    1.45058879714462   -1.51171727710901
H        -0.04199880291331   -0.18420728690362   -2.18111886379943
H         1.41640108209462   -1.90371184866856    0.27103047761364
