39
 energy: -52.270144015160 gnorm: 0.114637404448 xtb: 6.4.1 (79825abcba525fcdf90b791dcacef51065a7a4e7)
C         3.80324873416484    1.42267533398685    3.55094438692360
C         3.76271969323095    2.15067894598629    2.20095931927202
N         4.87366707083633    1.63404764661989    1.42059672642707
C         4.77119917037780    1.38248822833568    0.07742109096651
N         5.85602603044073    1.06189423355873   -0.56338038342088
C         5.48594620475987    0.50647846414297   -1.86389942854809
C         3.97330549093364    0.61774222256977   -1.99207109977485
C         3.44476571778756    1.22257806398393   -0.69067673852298
C         2.86271715266818    2.63020368620528   -1.01213523362158
N         2.35470528227471    3.55223594293154    0.02447566358643
C         3.34798868150277    4.25087094955770    0.83303436845888
C         3.54806541569932    3.69051009696110    2.27002402837031
N         4.63049704675563    4.41878913692345    2.97432264401544
N         2.46373999729278    0.37164665778331   -0.00369697693490
C         1.35710258586393   -0.32852632208535   -0.40221924246032
C         0.63244196299935    0.22214678074411   -1.60499043332098
N         1.07085778106839   -1.48746764653185    0.08938617757309
H         3.00991740456806    1.83976724561309    4.17696178925930
H         4.70120933824073    1.63366674764020    4.13896649003104
H         3.64619973243192    0.34685260479265    3.42540947526827
H         2.86897605073576    1.82198171774384    1.66512572434744
H         5.80938212952535    1.60024047998030    1.82095176295083
H         5.90906557955117   -0.50386460579515   -1.80919025507482
H         6.04433207263488    0.99278695303977   -2.66686191931159
H         3.57248053278240   -0.38981341169829   -2.15555889011934
H         3.68134110536047    1.28079209915901   -2.81642408213959
H         2.02762104821593    2.33211781663721   -1.65601113580631
H         3.62681335999845    3.25304287212278   -1.49433333349492
H         1.56756775798567    3.26352207193971    0.60302811390002
H         3.14546655166317    5.31552911601381    1.01230353656162
H         4.30842665621331    4.12773870274914    0.31647043389489
H         2.68697382333060    3.75956226888849    2.94862063048997
H         5.49152898487720    4.40341251177340    2.42226718957540
H         4.70077875030221    3.98766976867430    3.89387790439235
H         2.81310935430736   -0.20107203327756    0.75803130117809
H         1.32021809683392    0.34250454766852   -2.43783941205187
H         0.14437804395611    1.18029304588225   -1.40433649966158
H        -0.14057629918611   -0.46769554647147   -1.95849969043369
H         1.76937977840238   -1.71288174528862    0.79951320106616
