39
 energy: -52.266597392770 gnorm: 0.112772492670 xtb: 6.4.1 (79825abcba525fcdf90b791dcacef51065a7a4e7)
C         4.33656310052788    1.22993159948173    3.29768669097323
C         3.88235425941024    2.04948879971656    2.08273324428849
N         4.98576061998387    2.11695916643868    1.14038514788804
C         4.88349786729958    1.38273604294853   -0.01216045302809
N         5.91307293715545    0.73786972606438   -0.47517122844048
C         5.47561993420887    0.08699458130454   -1.70878055153399
C         4.11921489746879    0.64348562640779   -2.11789255642848
C         3.57082881817568    1.17078556327610   -0.79122928170438
C         3.04972373611691    2.61822247337704   -1.02977043749031
N         2.23862214020096    3.33700360071890   -0.02565411506008
C         2.96792784022422    4.12631798521469    0.96104034771923
C         3.26904298389519    3.45778799193152    2.33267134591113
N         4.07392238433900    4.38768848673439    3.16064439076896
N         2.66613688926356    0.30514302111290   -0.02270315208659
C         1.34248973591003    0.06286093181320   -0.27363371101076
C         0.76746558251270    0.47269251676932   -1.60645691850153
N         0.58810034578173   -0.63851356542429    0.50465121265802
H         3.60228137627088    1.32940739064137    4.10153553592702
H         5.34824690236515    1.39584955496182    3.67924629908642
H         4.26422315806458    0.17657124952742    3.00956023023610
H         3.02718820164794    1.62660086489573    1.55001003237421
H         5.91318201608374    2.01783027660923    1.54910606493731
H         5.36414994348024   -0.99144502228285   -1.54337594557836
H         6.20665439184440    0.14159560068167   -2.51850077362088
H         3.53910712263894   -0.15035166565643   -2.60354117139586
H         4.35371402560574    1.56910674013718   -2.65888414323162
H         2.43590826570217    2.57375858246864   -1.93645141204156
H         3.95650924015036    3.21630342612760   -1.18573806494674
H         1.47782101941912    2.74817957954943    0.30920712384293
H         2.40858455149447    5.01797106428317    1.27526882054170
H         3.90461453793962    4.44651383251416    0.48719057928778
H         2.30854654410816    3.24282685445443    2.82050183396298
H         5.00848188354575    4.45496242018328    2.75021726477837
H         4.26835940993626    3.87921333253820    4.02089584616622
H         3.10242114806757   -0.37890038903462    0.58724459804616
H         1.43923768277268    0.20863163083519   -2.41895523462041
H         0.66321806709388    1.55782415427282   -1.69664803823404
H        -0.26127708081473    0.14229349639906   -1.78233607550337
H         1.09080755943739   -1.05139085938314    1.29195209464621
