39
 energy: -52.263340811496 gnorm: 0.127331014182 xtb: 6.4.1 (79825abcba525fcdf90b791dcacef51065a7a4e7)
C         3.59054326866434    1.80462475226223    3.80556684048784
C         3.72028850077682    2.12563866965366    2.31084018468529
N         4.69221849391735    1.22241929370580    1.71954956938822
C         4.75635317460097    1.02800932966600    0.36456097221037
N         5.90482434919852    0.91296266953905   -0.23379893252383
C         5.61336751768521    0.53450796107704   -1.61532724894765
C         4.10162746832399    0.51414416025976   -1.79172698246265
C         3.50591981185266    1.13892860853272   -0.52935431882802
C         3.02326995646929    2.57935394236736   -0.86957474524950
N         2.23452270674710    3.33738198274152    0.12342724331340
C         2.87855653764891    4.27056706901042    1.04149911841487
C         3.86749178907566    3.65654756507121    2.07298414789720
N         5.21471096595404    4.13320043957960    1.67815804296738
N         2.36366316727216    0.41008542926525    0.03851389005938
C         1.29620332843989   -0.13780585272273   -0.62031324804329
C         0.66018189423711    0.51668991987076   -1.82120643113511
N         0.68845489607105   -1.18520174666463   -0.17269660284849
H         2.56180652547184    1.98165817730236    4.13052518463864
H         4.14332348707843    2.55836195333698    4.37384043596155
H         3.89480332768416    0.82756199439189    4.19362885358622
H         2.77772067535932    1.79798827965474    1.86570164816894
H         5.60873524874537    1.19656726932588    2.16262796249436
H         6.10707366841069   -0.42561406551923   -1.80829395081690
H         6.22283003799271    1.20603655871284   -2.22413285170326
H         3.74852178907250   -0.52390103226444   -1.77340158986819
H         3.89119698438600    0.97913228543929   -2.76329335897505
H         2.40252572468406    2.68665464286924   -1.76622406332233
H         3.98930498155186    3.09992825973120   -0.87766090113089
H         1.55402190659089    2.79709325687112    0.65509525119561
H         2.10280868943426    4.80543510889233    1.60610615820838
H         3.43219127861769    5.06901127032666    0.53118904045642
H         3.81010198927279    4.12848970436786    3.06329586902119
H         5.49724027125253    3.69226973807791    0.79944593357929
H         5.92011292739239    3.89162388148009    2.37129160951764
H         2.74879131852076   -0.21677159714269    0.73781510765272
H         1.39097210446536    0.50043533827681   -2.62547061684382
H         0.29544414612528    1.53164807544974   -1.63861680299239
H        -0.23401469474017   -0.02721032309974   -2.14213235664534
H         1.29520333960671   -1.61878168551314    0.52507818185287
