39
 energy: -52.259693720516 gnorm: 0.116879134811 xtb: 6.4.1 (79825abcba525fcdf90b791dcacef51065a7a4e7)
C         3.91376915029316    1.38549609236181    3.65785002459450
C         3.71030302687082    1.89310787737629    2.22431475228112
N         4.81922046098385    1.45621442503535    1.39395096315013
C         4.82868857963389    1.39395436484534    0.02503289042814
N         5.92768455561230    1.27883210973337   -0.65995696616712
C         5.61300559806965    0.78136633813538   -1.99797808547093
C         4.21769025611293    0.18135590278710   -1.89811753440215
C         3.57907070690024    1.03707190367212   -0.80325534443164
C         3.16599151834568    2.44144493304080   -1.33299870247672
N         2.67893645435492    3.34231320031079   -0.26810647088842
C         3.58206541599052    3.94642289593271    0.70548458141718
C         3.42499697619427    3.42168125081049    2.16114594336133
N         4.25113456949985    4.32036212206866    3.00254627460691
N         2.54358716509328    0.24043549677816   -0.13125741148230
C         1.18758101829609    0.06320954149627   -0.19081287775789
C         0.48254892934275    0.62061318337790   -1.40211934611240
N         0.45965240281083   -0.58041742868586    0.65925842930574
H         3.04447688351215    1.70764978970456    4.23732047499824
H         4.75233310939639    1.97396319776114    4.04143518570406
H         4.00340188187742    0.29586556676349    3.70774234302605
H         2.81979650650894    1.52223357327696    1.71110173314727
H         5.75685219219877    1.55482098555606    1.77880581365187
H         6.31247356464395   -0.01329595075284   -2.28446130663564
H         5.68561881544262    1.67809819858265   -2.61736389901361
H         4.28334442842014   -0.88529004859561   -1.65212319038485
H         3.54570575145370    0.39166130892539   -2.73992787984496
H         2.38288566689067    2.35114131556712   -2.09418681992282
H         4.04075853305298    2.99444419678726   -1.69804824904743
H         1.97066701952451    2.76740849402920    0.18521805104104
H         3.20337232492908    4.97689705089585    0.74242002728438
H         4.59816604101236    3.86583318799943    0.29868515101254
H         2.39484090227281    3.63860875353492    2.47493123948279
H         5.24048438380238    4.07917036321576    3.09945419739370
H         3.79242727351534    4.28115899098646    3.91053087672611
H         2.95245934607579   -0.34352121644322    0.59131695523840
H        -0.46526278606476    0.14039316235053   -1.63059495557391
H         1.16753952700567    0.76343658814392   -2.24289399829822
H         0.16359186097565    1.64044366624909   -1.16416842332853
H         0.90152883530550   -1.14091315650939    1.38974774310695
