39
 energy: -52.264928287684 gnorm: 0.129760387449 xtb: 6.4.1 (79825abcba525fcdf90b791dcacef51065a7a4e7)
C         3.88158164857746    1.76927525538017    3.81414257141766
C         3.60678957402110    2.13008656111933    2.34840177900210
N         4.59583909824092    1.33493211842044    1.64158624134426
C         4.66124465986142    1.13872609888497    0.28691731067595
N         5.79933602205491    0.91855554716101   -0.30175011418811
C         5.58920033273569    0.66879435688338   -1.72662129450167
C         4.11123193090426    0.31514120758258   -1.81280939962084
C         3.45209658711838    1.08421351209402   -0.66700122940069
C         3.02796436494479    2.54316887738993   -1.00624612131518
N         2.38581194510315    3.36696763205920    0.03863548551848
C         3.04533859524389    4.29040973780957    0.95555926703681
C         3.76133720408424    3.67044645865011    2.18923903674047
N         5.17664791889922    4.11034147796608    2.22761979577702
N         2.35126662159196    0.39787907233929    0.02260399801999
C         1.24874252254785   -0.13249596444305   -0.59127832079042
C         0.82078898536829    0.36735625691027   -1.94849457105663
N         0.53846696091921   -1.03941511668830   -0.00838617385655
H         3.02485121473788    2.00913758350146    4.44952991476989
H         4.76823120210290    2.24877275155755    4.23906060907885
H         4.04064154632920    0.68645791318329    3.80919240821655
H         2.59844818477364    1.82592136150021    2.05742348294924
H         5.53816638052940    1.51655488701586    1.98220660007823
H         6.18400462642780   -0.17664707492801   -2.09302660962605
H         5.81177583435376    1.61210616408588   -2.23027044707942
H         3.81743838986340   -0.73564609386444   -1.70286092645603
H         3.62750986701013    0.64947733449438   -2.73945307441379
H         2.33057584865404    2.47938809682007   -1.84909730875085
H         3.92011434736056    3.07390523817220   -1.36215902597986
H         1.67456556944334    2.75714387365337    0.43852009224492
H         2.19512133214978    4.90903096340102    1.27350272223161
H         3.63565848425139    5.00900837461624    0.37282487609438
H         3.39773454953964    4.23651849373110    3.05762595440588
H         5.55959259238908    3.57944598560359    1.44156571412012
H         5.56783951582223    3.74378562823320    3.09306260012673
H         2.59125975062629    0.21740379018601    0.99220576159505
H         1.76323532279219    0.26208879878670   -2.47941178870721
H         0.45168323214523    1.39655274981772   -1.91642932807155
H         0.05825631185313   -0.26825372203828   -2.40996216419123
H         0.90496716366764   -1.44066263142778    0.85631198991156
