39
 energy: -52.262224951329 gnorm: 0.128692889688 xtb: 6.4.1 (79825abcba525fcdf90b791dcacef51065a7a4e7)
C         3.63390239186862    1.53951646524448    3.76519261462471
C         3.61823395281138    1.97396274950374    2.29376389822272
N         4.66618145304007    1.29425555725163    1.55222366818208
C         4.86802947697627    1.20093264895608    0.20002146104629
N         6.00636348331154    1.29179172770432   -0.42142578153644
C         5.72948888968331    0.91057144149509   -1.80519133179452
C         4.25622370122325    0.61955615561314   -2.05356469596469
C         3.65621563414826    1.14998815770375   -0.75070622928623
C         3.08564736828439    2.56847531933062   -1.04374555186252
N         2.19820329947377    3.00370671411534    0.05434295952428
C         2.71787449573499    3.96817991723646    1.01777601706744
C         3.59686403161731    3.52846845957791    2.22318279470036
N         4.96783072172815    4.06379988697824    2.04442112009702
N         2.67688842966478    0.21175261128151   -0.18584410792530
C         1.33674032091364   -0.02155626227561   -0.33841727992356
C         0.73625411784365    0.55641859198176   -1.59555442820815
N         0.60018682512075   -0.69179100293609    0.48318560933945
H         2.70660321615272    1.89880515901288    4.21935769578954
H         4.47509773743125    1.81489299088814    4.40798245110703
H         3.56194350179659    0.44968429128875    3.83523330874514
H         2.68423098131969    1.63177634524194    1.84156469897451
H         5.53607481993640    1.12170166358628    2.05272385947054
H         6.40801852918032    0.06658058661485   -1.97866521124021
H         6.13919702324626    1.72895916573708   -2.40136267215964
H         4.12363341876514   -0.46845384729236   -2.08836867726866
H         3.88089433408873    1.06910770567853   -2.98171740033163
H         2.44970034319962    2.55215183601785   -1.93600212255097
H         3.97009478932478    3.18948311355839   -1.23450393059662
H         1.65144738444237    2.24665434985914    0.46127515823202
H         1.77497374026065    4.31248754231311    1.46391510849690
H         3.21468303978960    4.82758456472882    0.54975264764014
H         3.16094202613921    4.00351388471788    3.11258941034691
H         5.23608746905419    3.83762517343868    1.08355641503085
H         5.63420815724909    3.74069903447061    2.74294259861145
H         2.89927503385451   -0.33120347707646    0.64243030005117
H         1.37778979840779    0.45194756368537   -2.46657520588494
H         0.72722743021329    1.63816280643044   -1.43350309257155
H        -0.29443034445358    0.21462920837970   -1.73439973982098
H         1.11697729794386   -1.14890688129869    1.23617801475154
