39
 energy: -52.263375258879 gnorm: 0.125889730196 xtb: 6.4.1 (79825abcba525fcdf90b791dcacef51065a7a4e7)
C         3.77020158743964    1.79111011946173    3.86772622287745
C         3.79417106055013    2.10655948075028    2.36639058100404
N         4.73926623184082    1.26027967091836    1.65880075872119
C         4.72065402051043    1.18002921601892    0.29091331718858
N         5.88998364957929    0.95698763707580   -0.23175007750691
C         5.62661776135285    0.68841338368373   -1.64430160682214
C         4.12198800858571    0.70815526763550   -1.87362473712342
C         3.45514803877008    1.20022635972440   -0.58832380982743
C         2.91954687548353    2.64928872604177   -0.78035411574132
N         2.11848595374154    3.09711880919778    0.37745904927016
C         2.67215142195494    4.03593162498411    1.34728120268663
C         3.93645133448354    3.64294670798790    2.16342019642103
N         5.13767287395441    4.21494328666671    1.50922461756302
N         2.46400224386349    0.24457997744158   -0.07567682733324
C         1.33397835263418   -0.22842220996055   -0.68643332070785
C         0.74767704288198    0.55331650428468   -1.83541886178422
N         0.73451682712379   -1.27648366875955   -0.22930092426073
H         2.94863622364891    2.35909149330414    4.31232217490976
H         4.69132035532800    2.10863691548382    4.36505666265690
H         3.62074192540473    0.72948047599979    4.08777680044705
H         2.85339344734689    1.73371048563010    1.95425187599526
H         5.69080822245728    1.25415203305856    2.02145769324938
H         6.09339140693873   -0.25876953224825   -1.94058374603086
H         6.14078444882933    1.53991942333564   -2.09553277848550
H         3.75897928189590   -0.31656318497983   -2.01761786922584
H         3.86571830690809    1.34023053046996   -2.73341708478519
H         2.28217326766977    2.49166396461594   -1.65769451783311
H         3.65973507559788    3.43072532105278   -0.99428152646007
H         1.52880369707236    2.33841839412960    0.71556057241013
H         1.90763037104363    4.23018642246258    2.11175638077825
H         2.84421088648860    4.88971777930559    0.67953447088953
H         3.82090086505143    4.28617895069561    3.04639281647710
H         5.32039557857054    3.67969846210154    0.65687313264853
H         5.96044541701196    4.37007396162898    2.08833178926291
H         2.87362032453084   -0.41105922286869    0.58208139486614
H         1.52608168079179    0.78038498565624   -2.55908007187464
H         0.32545660064796    1.53353497331253   -1.59580604108135
H        -0.06064445360695   -0.00403093996096   -2.31955587524563
H         1.30421651347198   -1.89007016666006    0.35548857581394
