39
 energy: -52.267256043565 gnorm: 0.117984605352 xtb: 6.4.1 (79825abcba525fcdf90b791dcacef51065a7a4e7)
C         3.93604806445286    1.55836086437873    3.68192554772368
C         3.65330334006774    2.07819604722768    2.26632731214324
N         4.77349733643964    1.50807635147820    1.53817436824760
C         4.78222302000560    1.08081934585953    0.23614597660743
N         5.90605925594240    0.91005873776266   -0.39479720443566
C         5.56109904933305    0.54870092790960   -1.76855793193923
C         4.04955863248340    0.46057075658464   -1.92466105703436
C         3.51694115499759    1.10351375285067   -0.64335277116831
C         3.05805121799645    2.55511997957951   -0.96859945989692
N         2.30230393018497    3.32190360112077    0.04316663268021
C         2.92368165433495    4.25431881762008    0.97749074861800
C         3.53540217524968    3.62997567928664    2.26394631408750
N         4.80846349429866    4.36660252769205    2.45044271234397
N         2.43585990946672    0.36210391676601    0.01998105250763
C         1.33440229882627   -0.17504502222810   -0.58991299181166
C         0.74956684885339    0.50543948013725   -1.80232413638526
N         0.67224089435774   -1.15297125519957   -0.06841557973275
H         3.13311623743266    1.71017939021906    4.40821038551444
H         4.85106827030118    2.01830082609987    4.06639124956507
H         4.19765477522026    0.49691207504562    3.62990296525536
H         2.76747789718156    1.69052833011881    1.75744203049140
H         5.66081528853988    1.83384513850597    1.91702963165229
H         5.96326350389314   -0.44957410668066   -1.97957198283882
H         6.00378967703844    1.34622372396799   -2.36940890297710
H         3.64709328662478   -0.55945562419936   -1.91347631091871
H         3.75935526498822    0.92492409888478   -2.87576260739452
H         2.31148663759011    2.59862467726697   -1.76957731873731
H         3.90490908099804    3.21662711890565   -1.19114550114680
H         1.68138225528506    2.74427978742104    0.60749909665702
H         2.25271440851643    5.07117550034167    1.27615071088323
H         3.82764006067549    4.67368793719793    0.51767589921504
H         3.05736032943046    3.91784919731716    3.21017309222402
H         5.47797871221007    4.07422473084648    1.73445230578040
H         5.24962264991746    4.07433030002727    3.32012130193487
H         2.79409028763094   -0.26270210202707    0.73523209986018
H         1.50283961489202    0.55115081458814   -2.58440472188512
H         0.51340955466418    1.51194200115120   -1.44497966117803
H        -0.16423629118446   -0.06228441451300   -2.00496143047521
H         1.20845876850381   -1.58636137667606    0.68502206324108
