39
 energy: -52.268901164787 gnorm: 0.122013181303 xtb: 6.4.1 (79825abcba525fcdf90b791dcacef51065a7a4e7)
C         3.60085089663980    1.74380740479824    3.82986821800569
C         3.65586279595016    2.08141318857852    2.33417855565207
N         4.62468797560184    1.22073890422554    1.67790476448513
C         4.73903564231397    1.10163292743304    0.31752210454050
N         5.85283128895758    0.73950507387669   -0.24690595979033
C         5.65911359575113    0.61469585279805   -1.69040575361363
C         4.15520726308377    0.54014963519269   -1.91311215546825
C         3.57581109865983    1.24127292871405   -0.68366749145545
C         3.11729907468294    2.70727184180300   -0.93692603565447
N         2.23173940727007    3.36229150228161    0.04771349390398
C         2.75056686399406    4.16827514112614    1.14756729636117
C         3.78494342902211    3.62397067351273    2.17361408600123
N         5.14358904334575    3.94207466790104    1.67263796594651
N         2.59404843613298    0.38036182294863   -0.01030941099630
C         1.38858911636496   -0.04656745775364   -0.49847721220839
C         0.68399727290600    0.58535340037113   -1.67289570668243
N         0.69774559802652   -1.00593910897474    0.02026959944691
H         2.89778515889408    2.38709144026428    4.36570612624077
H         4.57671693984653    1.89522433205933    4.30037751286634
H         3.39763816460079    0.70158585187332    4.09500358964862
H         2.66568080509960    1.95361018376286    1.89017043097424
H         5.51024692031919    0.96559511103618    2.11112151705010
H         6.12981538666506   -0.31071849939498   -2.04376721119988
H         6.17730344008559    1.39572894961759   -2.25121416325657
H         3.83636372478226   -0.49682727937644   -2.07303380327098
H         3.92299080336390    1.13790172734650   -2.80373223767192
H         2.50256200397826    2.61488506501456   -1.83935602091199
H         3.99315740306519    3.34971282530248   -1.09322202335312
H         1.44788136129735    2.78183209070855    0.34147794411168
H         1.84602829715922    4.48251472369639    1.68581734977953
H         3.20104486943878    5.03590179585932    0.64883439892573
H         3.72316084607820    4.17433754329560    3.12230765629632
H         5.31804193187940    3.56863059568665    0.73643105687783
H         5.86983503977182    3.66052492744018    2.32813914702240
H         2.97543221357205   -0.35232166131241    0.57962020124875
H         0.32189584165986   -0.26852274676882   -2.23940917273964
H         1.40209710243950    1.12290911377269   -2.29889822346013
H        -0.06280879327000    1.26164004891538   -1.24473038827089
H         1.05322064748656   -1.44303851537841    0.87209498161568
