39
 energy: -52.266962159659 gnorm: 0.115608644186 xtb: 6.4.1 (79825abcba525fcdf90b791dcacef51065a7a4e7)
C         4.22311026927060    1.62991578603304    3.62215623562150
C         3.75967581814773    2.07735623522838    2.22963437695023
N         4.94688689811419    1.87155365312427    1.41830649086273
C         4.80969301894499    1.31491428488195    0.17362457105885
N         5.85759029450052    0.87161298235810   -0.45538388071341
C         5.59322295365808    0.35994887121461   -1.79892594937628
C         4.07401064370720    0.34076955757457   -1.89120620922721
C         3.55149910518072    1.14482274088749   -0.69986740003001
C         3.10251754054647    2.58057359706875   -1.10056810099366
N         2.35773919686898    3.28213494985093   -0.03478265989371
C         3.17758334571629    4.13421847115466    0.81978110301393
C         3.35006836031208    3.57838732072099    2.26209692962938
N         4.38578083626585    4.41769930796402    2.91089598068213
N         2.51301035997955    0.35005135077589   -0.03030297990854
C         1.31154228976860   -0.11875571108491   -0.48900002755155
C         0.48176423112354    0.64269382821940   -1.49234214255874
N         0.68354889609042   -1.17713799979159   -0.09886132960883
H         3.51279582504477    2.10517139852530    4.30393592667437
H         5.23546026632258    2.03540166902064    3.70788433743155
H         4.23227850108456    0.53778302519301    3.69272485875934
H         2.93781190777499    1.51527272057069    1.77959099151235
H         5.77277005560204    1.53522499087631    1.91002776468366
H         6.04816318227385   -0.63779010024700   -1.81796680090774
H         6.14275812690495    0.98519910430358   -2.50611243440522
H         3.70424383379293   -0.68937964965046   -1.82321811293575
H         3.71962702733531    0.72060405201239   -2.85793998273212
H         2.49689391825617    2.64156211472842   -2.01178557540424
H         4.04061988593980    3.03136609344873   -1.44847153312595
H         1.68804515178619    2.72283379283460    0.49091328807715
H         2.59390989950879    5.06199470387527    0.89193536334550
H         4.12973698943247    4.29417976788236    0.29799879167917
H         2.36139308340568    3.74339461634519    2.71157894286946
H         5.27977549377268    4.03822716056030    2.58972296040179
H         4.32426507237431    4.35950061235706    3.92539784316811
H         3.00176797136483   -0.37767444122961    0.48138715517518
H         0.03074806534338    1.57519735501713   -1.16343332605130
H        -0.32935738813645   -0.03695024163914   -1.76925064706824
H         1.06666871498674    0.82791836868489   -2.39897717438541
H         1.14558381744605   -1.76045420066842    0.60063193230622
