39
 energy: -52.269123288073 gnorm: 0.105741069221 xtb: 6.4.1 (79825abcba525fcdf90b791dcacef51065a7a4e7)
C         3.59802149081571    1.54694867548690    3.71216420325398
C         3.56934858986416    2.07928390748168    2.27345345322607
N         4.59781547674945    1.31535319317065    1.58880500721681
C         4.74414464500985    1.20129464740514    0.23105648923690
N         5.90663497710068    1.17470487099246   -0.35046356924124
C         5.74128365433701    1.03531226915622   -1.79615516434495
C         4.32733139844020    0.48114361639663   -1.89874981084381
C         3.55643643218889    1.13008417263267   -0.74835636671921
C         2.97081751289903    2.53659345201063   -1.06821274545821
N         2.23790231045287    3.23287022366842    0.00919880698903
C         2.93397784136252    4.10123752343006    0.95253704926215
C         3.74646625703398    3.62314934808918    2.18957728052579
N         5.14103966993772    4.12147938141107    2.25970080105937
N         2.57230509751982    0.22859830783950   -0.13415307832345
C         1.33159175827233   -0.20228232902238   -0.51974462430632
C         0.54496391199119    0.46985272188642   -1.61723426951033
N         0.70069114023377   -1.07511239920541    0.19221678783371
H         2.71381580589213    1.74957707070654    4.32237735307222
H         4.43405224693069    1.95815338883794    4.28538656745002
H         3.67056922251415    0.45555404568271    3.74974796655579
H         2.65158118160124    1.77464488834844    1.76469490680731
H         5.48416367035936    1.48011826057650    2.06233337850116
H         6.48988051259551    0.34290646880706   -2.19987929172781
H         5.86288451387879    2.02365421791804   -2.24496794395039
H         4.39049470395203   -0.59820366171049   -1.71550921936989
H         3.84382141266942    0.63120507103993   -2.87247247652861
H         2.21715382499987    2.55708675065000   -1.86344096233496
H         3.73293292889749    3.22991718738222   -1.44606053404794
H         1.55641712671684    2.71701265269083    0.56339464661222
H         2.16885699236085    4.72641018049043    1.43253589833541
H         3.68128288093610    4.75244817021070    0.48147354966947
H         3.27551176694682    4.15377096963971    3.02825650674692
H         5.71145760616768    3.81015434572096    1.46971487497449
H         5.54730061193072    3.71550225595244    3.10024819703091
H         2.96233159996090   -0.25358521838665    0.66938533663409
H         1.23956603868005    0.47920593025939   -2.45305711513784
H         0.21332972846102    1.46817656265154   -1.31743277670237
H        -0.34211246705916   -0.14792060673075   -1.79003495823801
H         1.30047081658712   -1.58726996895457    0.84104946789137
