39
 energy: -52.268820188729 gnorm: 0.117434870223 xtb: 6.4.1 (79825abcba525fcdf90b791dcacef51065a7a4e7)
C         3.69557225352110    1.51514372166344    3.79071248999350
C         3.64106521188126    1.97398848390978    2.32763969552030
N         4.66015645511363    1.30616276364003    1.53672909439941
C         4.74795037183922    1.25431594024904    0.17016160143213
N         5.86137816894657    1.24335617088197   -0.50096786719265
C         5.60830227509316    0.96175266143190   -1.91286290271697
C         4.14287272809542    0.56666031636061   -2.02822240107989
C         3.51852321234298    1.12953299070233   -0.75065831024062
C         2.83749665265364    2.46139286649334   -1.18179410789801
N         2.46090929095307    3.39527806373356   -0.10067335051534
C         3.46909782996836    4.03331013968325    0.73893423381704
C         3.62341688511605    3.52495565445948    2.20069194453154
N         4.82640903956518    4.23879983363481    2.69193678786205
N         2.55809132553121    0.27307935944237   -0.04178971241129
C         1.28346188265063   -0.13412515907014   -0.33025602928588
C         0.56201587341494    0.49251864981273   -1.49724600790807
N         0.71302742362524   -1.16454731107941    0.19850827180443
H         2.76982880995246    1.84745512712430    4.26800302319443
H         4.61424153799236    1.90818861803987    4.23589006312776
H         3.78642598670420    0.42747837804094    3.87163001718725
H         2.65889074423995    1.62588650150585    1.99886086368414
H         5.59185092654824    1.49550659353987    1.90153601233922
H         6.37430927134889    0.21671412125247   -2.15977801340611
H         5.92790580460096    1.86795503072753   -2.43218008520021
H         3.94207182017234   -0.50498366339884   -1.91068327001686
H         3.53307430196572    0.86668951371177   -2.88994424523421
H         1.96392469410826    2.30098083413899   -1.82363276314522
H         3.60381825988854    2.92910460273816   -1.81289125055078
H         1.69339490819532    3.02459659096830    0.45716268319589
H         3.26325758257192    5.10963036880542    0.66268324339971
H         4.44899185552782    3.98209666183931    0.24737973383658
H         2.75508029741822    3.81065394358925    2.80987856438094
H         5.59191872374725    3.87049070017180    2.12209385275320
H         5.02929400426265    4.02157863888464    3.66560918993395
H         2.99709847572194   -0.32600705140592    0.65006562183100
H         1.27256815458300    0.84309130841644   -2.24113691900008
H         0.03989461802351    1.34346322915415   -1.05026124276062
H        -0.22160348271169   -0.12969019970703   -1.94132405699767
H         1.24076231703945   -1.45256331978636    1.02407931391973
