39
 energy: -52.268747428433 gnorm: 0.121659913931 xtb: 6.4.1 (79825abcba525fcdf90b791dcacef51065a7a4e7)
C         3.85078397816654    1.88880355223907    3.96877883331371
C         3.69083513987316    2.06037107684457    2.45250956027968
N         4.62272422266496    1.18042085434370    1.76888092421038
C         4.63492401834382    1.07448525721791    0.40267031796499
N         5.79253392699856    1.14148485596516   -0.18529798310894
C         5.69763666751345    1.04026713864937   -1.64047667418024
C         4.25944273864445    0.58820570048072   -1.85054383413675
C         3.49041279344813    1.09381767205508   -0.62916861051315
C         3.10015183011671    2.59332692428698   -0.77981514774868
N         2.14662240691276    3.07736051208458    0.23963315054283
C         2.71155418721567    4.02458885425488    1.19466221807244
C         3.89402925667902    3.56062870723904    2.09214088910386
N         5.20762243713128    3.84881922884061    1.46803807695997
N         2.44658556443532    0.17786315419352   -0.14970124911988
C         1.21374801193158   -0.05688095464972   -0.69624979516267
C         0.78816912987549    0.46565137385485   -2.04564780208790
N         0.45963312966417   -0.90020405386181   -0.07425794656206
H         2.97902936330708    2.25002103192754    4.52086929015621
H         4.77061155994739    2.36594679174194    4.31931009971803
H         3.97805381706498    0.83256055004129    4.22562715169938
H         2.68198762772137    1.81060979013395    2.11519190260163
H         5.61425681475609    1.24620908080727    1.99142260382887
H         6.41412290460473    0.32272601112250   -2.05832642922397
H         5.87181366213118    2.05427461256472   -2.00720641783809
H         4.21603210295645   -0.50578828859262   -1.78849598863174
H         3.79053662034182    0.94275142070651   -2.77729113285324
H         2.49483335470555    2.68400311504705   -1.68876191935547
H         3.97841582850959    3.25112207055863   -0.79545370027523
H         1.50515949683744    2.40994992610109    0.66478320308647
H         1.89353766047245    4.36998398345597    1.84134670659801
H         2.98773361510062    4.87006310415195    0.55174762756432
H         3.98306297689129    4.09208919384006    3.04940941633911
H         5.15317198851790    3.31032625427730    0.60002993690255
H         5.98931120932122    3.60938374508707    2.07468345647500
H         2.60226792969357   -0.32964109546769    0.71545656101074
H         1.46603723696748    0.16451122295750   -2.83998328275745
H         0.77043883527200    1.55929074492515   -2.03335086753562
H        -0.20765643429813    0.03381330150175   -2.18797063893537
H         0.75351428601784   -1.24520412613706    0.84096535641218
