39
 energy: -52.263925427481 gnorm: 0.113771952212 xtb: 6.4.1 (79825abcba525fcdf90b791dcacef51065a7a4e7)
C         3.60348446681270    1.39377329345644    3.53047719471096
C         3.62752487989675    2.12665162390864    2.18273725026444
N         4.75475473925942    1.69283921440903    1.37574443664696
C         4.72109985083666    1.31844072158781    0.05794485304719
N         5.84108272292376    0.97460283732425   -0.50567758366679
C         5.52818959060501    0.47631520669286   -1.84381168450766
C         4.01600957567610    0.46263010075207   -2.01705675617508
C         3.44679815051641    1.19225314496651   -0.79949503759064
C         3.04954798870230    2.64538879818834   -1.19206997196256
N         2.53647984692816    3.46047617591246   -0.07172388301091
C         3.48565138563383    4.20233256134010    0.75119316150459
C         3.57155295109838    3.68158027867010    2.21420794488715
N         4.68815450832893    4.31430327308807    2.95646646872538
N         2.57022683634061    0.35984276206363    0.03546162391600
C         1.37218385372217   -0.18792164382695   -0.33650038969188
C         0.57703754448974    0.37972181438308   -1.48565472148913
N         0.80189276251286   -1.13885839196990    0.32474415843326
H         3.20278284826721    2.04710628373104    4.31011317674056
H         4.62838328179978    1.11613955551393    3.79338886397166
H         2.95028910239450    0.51591485949070    3.55324411675389
H         2.76231440960701    1.68422982956894    1.68312639511015
H         5.70129555005443    1.52164456863221    1.71002373619305
H         6.01780500178800   -0.48964198136698   -2.01707356201031
H         5.98120742224246    1.22243172039115   -2.50041238654158
H         3.68081367556066   -0.57796141332779   -2.10290702180759
H         3.77097588371165    0.87032122761936   -3.00608790200498
H         2.34425996885931    2.81379099188566   -2.01366984787493
H         3.93157034916666    3.21710713497202   -1.50744494952443
H         1.89062657306583    2.96120316796100    0.53759060004193
H         3.27464980991477    5.28021944028819    0.76815994863345
H         4.52705981067767    4.13966824842695    0.41063093611426
H         2.71180784198681    3.88612870918602    2.86669439744224
H         5.58000445187107    3.83351221018047    2.81567834378859
H         4.45216728522895    4.23642413173973    3.94370006589659
H         3.05820953504132   -0.09230725578659    0.80209638566314
H        -0.24928493402111   -0.32448211342818   -1.53512613241281
H         1.18956386038249    0.23648987899185   -2.38053392370171
H         0.07242805485238    1.34250161495427   -1.35591352399290
H         1.39614770480672   -1.39643756100532    1.11438896611569
