39
 energy: -52.268315757263 gnorm: 0.115511099245 xtb: 6.4.1 (79825abcba525fcdf90b791dcacef51065a7a4e7)
C         3.57129742730511    1.43903214229107    3.71865547831713
C         3.62060616934612    1.99834143935786    2.29077828005965
N         4.75186718466499    1.50792563339429    1.52278180099357
C         4.79247402405942    1.28697463696763    0.17095550884745
N         5.88660068007324    1.08648156475851   -0.50205692538611
C         5.60386034596781    0.86141278487033   -1.91845993524588
C         4.13963917058188    0.44725849542421   -1.95617083820423
C         3.55212758943368    1.15428248426022   -0.73397805917834
C         3.00701649067392    2.55551725643452   -1.13761278188721
N         2.35372754357460    3.27606279596291   -0.02549346153841
C         3.12719814585709    4.13400821963540    0.86565346063902
C         3.66199031970890    3.55167873548110    2.20500552970651
N         4.95061216159103    4.18827562732162    2.56871321248317
N         2.55721889428576    0.33659001508562   -0.02689062767332
C         1.28404874325163   -0.06811948373329   -0.32514646116858
C         0.69845403024767    0.35300186700462   -1.64982304668021
N         0.57931641800722   -0.80494057113531    0.46681566316559
H         2.58782226201790    1.54217336363854    4.18489204043882
H         4.40370343973936    1.89425059562589    4.26317086660756
H         3.88576613292581    0.39239062669307    3.65975794913247
H         2.67205066546875    1.65369372322175    1.87197330922324
H         5.66581265119342    1.42076222565925    1.96334504765980
H         6.34355211668812    0.10180399008354   -2.19893592714671
H         5.85032112693982    1.70097463314753   -2.57224313448002
H         4.10561195959984   -0.64874353396616   -1.96954826523873
H         3.74808001481074    0.85643509883843   -2.89621983324119
H         2.26376133919383    2.59847450419250   -1.94169194567065
H         3.90639607510744    3.08754534153767   -1.47279803613731
H         1.68254502132567    2.62133342672994    0.37263666853758
H         2.47071554104185    4.98789878515247    1.08141061645469
H         4.03901060700030    4.48817486670214    0.36805425037671
H         2.88037780677734    3.90192049884830    2.89286661224445
H         5.70515049662484    3.86005458697402    1.96099575123918
H         5.10366760022336    3.89463538989483    3.53138384590147
H         2.99601952286557   -0.35907567973224    0.56791930924464
H         1.12155553332082   -0.29276972000921   -2.41475676848394
H         0.86297349431363    1.39570321875560   -1.93656315645819
H        -0.37348127785403    0.14093566832439   -1.71608830062320
H         1.17116830273663   -1.00633620486075    1.27438982846523
