39
 energy: -52.272108090978 gnorm: 0.114131301895 xtb: 6.4.1 (79825abcba525fcdf90b791dcacef51065a7a4e7)
C         3.62714748959385    1.70946676550908    3.78250935636606
C         3.58409279810059    2.08719839053390    2.29605159439199
N         4.61175499245878    1.26792256490755    1.67736320983701
C         4.73459993989248    1.17915130451776    0.31540454045123
N         5.88191868980781    0.92236871385095   -0.23955380499807
C         5.64309780937533    0.80589501322776   -1.67697998183983
C         4.16296896054039    0.51216212929357   -1.87655233884342
C         3.54047458790079    1.19624861957548   -0.65863016993639
C         3.11967428341852    2.64230438689115   -1.05280756879928
N         2.25923797937774    3.29221383089144   -0.04283291958341
C         2.93509255710907    4.15604877784018    0.91918565511443
C         3.77211417030348    3.62153912272751    2.11612697175633
N         5.21646035368616    3.90280196423208    1.93490760419119
N         2.51558066080631    0.38995547935888    0.01806824689316
C         1.35288186282202   -0.13635388858097   -0.47674333915017
C         0.66411723579231    0.44827489816660   -1.68456985176950
N         0.61348398630723   -1.02693302874608    0.09502282119867
H         2.69763479984161    2.04082644954629    4.25308875574553
H         4.54016339211876    2.13637400153335    4.20768319902599
H         3.63352085525717    0.61509307483212    3.79362508818131
H         2.58129397091073    1.80226187173226    1.96872469270580
H         5.57347201668274    1.28678120084152    2.01163030415799
H         6.31079582908037    0.02748052976639   -2.06565268156246
H         5.97168435175272    1.74413245869728   -2.12950718426365
H         3.98484459273109   -0.56987283435098   -1.87113840565940
H         3.84320029461121    0.92487747010641   -2.84187623549624
H         2.58500060084678    2.55586943753469   -2.00541972126255
H         3.96683487206954    3.31954574785039   -1.21998933976573
H         1.53871224346098    2.61697643140903    0.20728953678394
H         2.07516778122352    4.61383268545284    1.42674150209847
H         3.41780712192514    4.99203586940806    0.39711939332106
H         3.42893018421208    4.10487273431707    3.04098028785407
H         5.75889391339337    3.19279221591317    1.43688184722589
H         5.66973053331611    3.90083073725629    2.84645988642078
H         2.88517150471321   -0.04421169109500    0.85782838186157
H        -0.30511606063641   -0.04340045833540   -1.68582871698575
H         1.24603174709550    0.31034794865103   -2.60046521265620
H         0.49569833227211    1.52765098288764   -1.61392423520378
H         0.89339147144957   -1.40122668224138    1.00308721224954
