39
 energy: -52.257293309982 gnorm: 0.121650223132 xtb: 6.4.1 (79825abcba525fcdf90b791dcacef51065a7a4e7)
C         3.64610265472009    1.48076946116236    3.83035262130521
C         3.55344397928496    2.01655006883626    2.39562440480882
N         4.54064312128990    1.36184898528532    1.55486159307693
C         4.65393098067815    1.35948455486698    0.18918853916780
N         5.84701970645750    1.23863384681089   -0.31299745414003
C         5.60859877222795    0.91066189341376   -1.71741384666417
C         4.15446178393142    0.54568408641617   -1.98040881608810
C         3.45847862893173    1.15168081347786   -0.76090753632462
C         2.91555225509744    2.56186234958596   -1.13526698636886
N         2.33510080446159    3.43089748167686   -0.09093190839417
C         3.24543822006012    4.11183398417189    0.82344286424442
C         3.76853766241275    3.54164736738924    2.17260128895596
N         5.16044765017224    4.04598381627428    2.25207749851416
N         2.42311611046537    0.44092941583888    0.00151874709825
C         1.28444886799675   -0.19965445369988   -0.40689009625030
C         0.80280426160587    0.20508073322330   -1.77774396476512
N         0.71159509867689   -1.05616518346651    0.37091765662137
H         2.94151611505611    2.03810688219129    4.45338621229242
H         4.61934194537448    1.55920676505837    4.32358024484748
H         3.29458594466997    0.44483240632545    3.86334306676232
H         2.53611179378751    1.70110720995726    2.15176332555999
H         5.49575794475044    1.27623769584348    1.89752198776916
H         6.28568063001430    0.20393662072718   -2.21230349571372
H         5.78223200136526    1.88946627206931   -2.16999862599867
H         3.97076528059393   -0.53403905036181   -2.03527956784988
H         3.82950430237032    0.87922503889739   -2.97418406076680
H         2.09509045728629    2.31602581605720   -1.81880462318457
H         3.63014696122437    3.15522820095175   -1.71969666064301
H         1.55711568759102    2.93467038138118    0.34053297681559
H         2.71050045515604    5.03755931926098    1.07548224795219
H         4.10347959087661    4.43019401570175    0.21775907948704
H         3.22767724335396    4.05865039460718    2.97691351535374
H         5.80260910800406    3.51172109126350    1.66167961099194
H         5.49750401825383    4.19835637741244    3.20052934752027
H         2.72172285211232    0.10070886666641    0.91002279471434
H         0.05802124535610    0.94347126858744   -1.49272272599766
H         0.29144419850327   -0.64740513788037   -2.23413347595162
H         1.66129330543919    0.61105966143821   -2.32234119150806
H         1.09620801422911   -1.34349854166230    1.27232617880546
