39
 energy: -52.264039750885 gnorm: 0.110817758074 xtb: 6.4.1 (79825abcba525fcdf90b791dcacef51065a7a4e7)
C         3.97674103819453    1.59727923931608    3.83486699454438
C         3.74854498148618    2.10189922567281    2.40400125199111
N         4.78127213231163    1.56227522356481    1.53661534479628
C         4.68220874569939    1.20454428281031    0.21748017183284
N         5.75796477411288    0.97962674778926   -0.47708258599243
C         5.40930413860540    0.80936214293698   -1.88642330720684
C         3.89650021629586    0.69049896836999   -2.00552571136708
C         3.41006679879686    1.21114454648535   -0.65233736308959
C         2.79733303773244    2.58212945220266   -1.06280508019248
N         2.45411373426378    3.42451180940476    0.10140031158760
C         3.50671464753793    4.06716140102701    0.88082496471275
C         3.70389873347453    3.65709794866568    2.36808441664239
N         4.88093192440562    4.39087557800131    2.89177172257175
N         2.31278192115228    0.42925198029004   -0.06663533566948
C         1.34454301207931   -0.34716606028939   -0.64404075797622
C         0.77389084885360   -0.01259954811258   -1.99956788581561
N         0.69503151961725   -1.26615445204890   -0.01130689335680
H         3.02998606956250    1.76666647690979    4.35467565425020
H         4.74667138971708    2.14997937199674    4.38108163617822
H         4.19618013618951    0.53017059810745    3.93947854281601
H         2.72726797030999    1.83147985035819    2.12506788135609
H         5.65030740731642    1.34995710723501    2.02312172545689
H         5.93843544156146   -0.06218101272516   -2.29046391436916
H         5.79376257599064    1.66493280171201   -2.44609289524032
H         3.56675013589472   -0.35077723313818   -2.10333177474470
H         3.58275525409535    1.27891535891026   -2.87717152923547
H         1.84921109567309    2.36980035533832   -1.56955748799917
H         3.48840269685961    3.13608333570947   -1.71075916704769
H         1.61679568512476    3.18325364689357    0.62899590415014
H         3.35512206515258    5.15307042326716    0.94769010545742
H         4.40511460134525    3.73138112145899    0.34737385621905
H         2.83281105479773    3.92173799789927    2.98283004268284
H         5.37850440627644    4.84156760897244    2.11997124162404
H         5.47256140247105    3.82233924635255    3.49437134362941
H         2.61664690936391    0.09503873651222    0.84235487323947
H         1.65326975157651   -0.01953926484505   -2.63816323040749
H         0.18634260984316    0.90988553115199   -1.98165121399417
H         0.04824603467798   -0.79238006631629   -2.25213553443419
H         1.07451639547947   -1.57748164190053    0.88428871478827
