39
 energy: -52.268398413595 gnorm: 0.104312117849 xtb: 6.4.1 (79825abcba525fcdf90b791dcacef51065a7a4e7)
C         3.72252738886780    1.59365212544201    3.74366391224328
C         3.57781384635079    2.10584791443102    2.30463471645255
N         4.62503780988179    1.42606515896065    1.56214219194189
C         4.69391761828637    1.27340172478914    0.20204952319318
N         5.84416017544053    1.08103434780231   -0.37257489914091
C         5.69189859586419    0.89991254619448   -1.81507510665613
C         4.22363433458566    0.53055480490291   -1.97212432953303
C         3.50771815673885    1.15741013668063   -0.77490905908001
C         2.91391158655892    2.53833699586127   -1.17982978502533
N         2.49443506214461    3.38805655157231   -0.04634054711280
C         3.64030387496785    4.00277446691093    0.61515513368177
C         3.57755413100140    3.65217387190330    2.12912870786693
N         4.72229329166228    4.27145525441102    2.83916248980819
N         2.48460126875818    0.36342834662100   -0.08117878353107
C         1.26272905920235   -0.15005405904705   -0.42333763333615
C         0.38585604929740    0.32107427320704   -1.55654733653841
N         0.76720943635540   -1.13349758112490    0.25049922801276
H         3.99709334016076    0.53755731886281    3.67646756133263
H         2.75723090434977    1.59319191600391    4.25827357693610
H         4.55700836841652    2.11131557417417    4.22686573407578
H         2.68593973332078    1.70087444138106    1.82038863915615
H         5.53390244378123    1.41576216096410    2.02132482271898
H         6.38749718618816    0.17503316626653   -2.25497134934813
H         5.83541964061446    1.83441877552758   -2.36201139781272
H         4.04791223105924   -0.55118837769110   -2.01099197121537
H         3.70594769965648    1.00845386733247   -2.81358093700529
H         2.03613526259956    2.30421973270619   -1.79262232748036
H         3.73051067798920    3.03996936962006   -1.71444887448594
H         2.03130737804878    2.74422153314911    0.59291945706080
H         3.60595534396432    5.10063667099412    0.60217719504714
H         4.53949111026589    3.63271184923845    0.10627702061394
H         2.66372786638771    4.12819976419154    2.50999770890204
H         5.58501030359929    3.92121119531818    2.41557528197242
H         4.74189905956471    4.02935930987306    3.82779309466394
H         2.87166954664187   -0.22826338589939    0.64708947850762
H        -0.38509206930617    1.00222225115086   -1.20606788018751
H        -0.10342738788103   -0.52971487371895   -2.03952994819801
H         0.94939349658521    0.93097396701623   -2.26988902915670
H         1.39607599545844   -1.62577736389615    0.88706214577710
