39
 energy: -52.269369556705 gnorm: 0.116914566195 xtb: 6.4.1 (79825abcba525fcdf90b791dcacef51065a7a4e7)
C         4.02980156238239    1.35825226963076    3.67972770808981
C         3.66657277226111    1.94681945939491    2.31014928700175
N         4.75739684226675    1.67730710837687    1.38952792833982
C         4.83024578102104    1.27117262750953    0.08275694372611
N         5.94535308844158    1.27032932301034   -0.58566757169903
C         5.64156298292746    0.97338973860172   -1.98435767254382
C         4.22920367526489    0.40619457260754   -1.96385476681938
C         3.55256775019211    1.03892128451049   -0.74704388767730
C         3.02186311636021    2.44531981603189   -1.15191641554460
N         2.37877934769276    3.27771599878011   -0.11444758743341
C         3.22545640669245    4.03599939973313    0.80021858500334
C         3.40595498070282    3.47955121558714    2.24131537401971
N         4.48808097802870    4.33535559792454    2.78416648111587
N         2.56386883450205    0.20972336264643   -0.04466067234308
C         1.25771921683821   -0.06825794987662   -0.34534009894262
C         0.49945120078993    0.47743811887203   -1.52951822050794
N         0.68171210563076   -0.94022328660813    0.41271612156975
H         3.21790477330300    1.60345871003775    4.36960846152485
H         4.96462201758099    1.77917765358730    4.06124199997636
H         4.09906436333130    0.26913612640179    3.59698328586146
H         2.69832264639274    1.56630248585916    1.97602996315352
H         5.61923053823125    1.76230129033444    1.92525959938729
H         6.44592839400348    0.31708587445411   -2.33802098988367
H         5.64091757875992    1.90815257646203   -2.54938644166471
H         4.23557922165483   -0.67361839949601   -1.77275121781059
H         3.55678988339593    0.54724864028294   -2.81965826311802
H         2.25635549571597    2.41382138392637   -1.93538484789082
H         3.84447338038655    3.02476972955946   -1.58990822530175
H         1.59236395965324    2.86887006660186    0.38760815078684
H         2.91436257903868    5.08950080135279    0.80247375874282
H         4.27002390076572    3.99513592521234    0.46607807202146
H         2.47956469496835    3.69657099497078    2.79035429574232
H         5.39172730424323    3.87053594427987    2.66693307534115
H         4.46598064670342    4.42006085676195    3.79842576648472
H         3.08046989431155   -0.40082987486829    0.58035428710332
H         1.23505257365122    0.43281370384299   -2.32830399026010
H         0.09265025218109    1.49066442892744   -1.46320017728022
H        -0.32448741837741   -0.17315755445055   -1.83977437730379
H         1.33478663060616   -1.36881379575963    1.07061332096134
