39
 energy: -52.265357014978 gnorm: 0.124160533023 xtb: 6.4.1 (79825abcba525fcdf90b791dcacef51065a7a4e7)
C         3.77936399413284    1.47748128165180    3.74532043754338
C         3.54164323332788    2.02235005429334    2.33085997163031
N         4.57371164780248    1.37494759105341    1.53979575451593
C         4.68432419748699    1.43278514401453    0.17512646170637
N         5.81093717877968    1.43078477820105   -0.47371522413388
C         5.51635480825981    0.97034799236743   -1.82944924209289
C         4.08776482479250    0.44528363829976   -1.84754900020298
C         3.41954604473428    1.11538011934168   -0.64619047957970
C         2.77588864350154    2.47021194775454   -1.06291801682192
N         2.43214034148262    3.44091617124060   -0.00350681397031
C         3.45982915543975    4.14401600087443    0.75674070093981
C         3.71886106977589    3.56060668723466    2.17501793187483
N         5.06663620767753    4.08128818351554    2.50740038099617
N         2.42356313601020    0.37262881205918    0.13788569565829
C         1.28040167396106   -0.14939082132122   -0.40468772629465
C         1.01812039066530   -0.15972542212609   -1.88999379674156
N         0.30105714885253   -0.60470446627899    0.30265289037942
H         2.85765174627142    1.62875201668542    4.31347688236082
H         4.69432414245713    1.89040620699746    4.18001751691957
H         3.91728906713922    0.39303154399057    3.69275247433176
H         2.55694742093916    1.75143496650719    1.94238041170390
H         5.50467155412719    1.54108884694917    1.91755295166390
H         6.30727950500668    0.23594506446123   -2.02414561389368
H         5.71823367491271    1.76817775456064   -2.54760805027871
H         4.04433638430520   -0.63744992274831   -1.67914693098418
H         3.62115814010752    0.60534433824436   -2.82790349325384
H         1.90308891884400    2.38049106674470   -1.71941451028578
H         3.54389959191125    3.02561103615098   -1.61607053434987
H         1.64159688339805    3.34514711791202    0.63173600720735
H         3.14018586874033    5.18859300170455    0.87222539390849
H         4.38246687985429    3.97600776019509    0.18669349950269
H         3.00489300293319    4.11911800922632    2.79554591900730
H         5.85271522825555    3.57067670196184    2.09784775829274
H         5.15126456120139    3.93809809039046    3.51175088958426
H         2.90245491298973   -0.19199141588902    0.83226474814903
H         1.76907637269582   -0.75661088067032   -2.40082868192803
H         1.11178827155825    0.83978914977321   -2.32440097922627
H         0.03178066760636   -0.50881938158600   -2.21198108200288
H         0.41505141319439   -0.48742711687948    1.31075814779892
