39
 energy: -52.269279780516 gnorm: 0.111857673354 xtb: 6.4.1 (79825abcba525fcdf90b791dcacef51065a7a4e7)
C         4.11922369213958    1.58100319305262    3.79709174109882
C         3.74152358695996    1.98107221405343    2.36482816450123
N         4.75776213488617    1.49713157766279    1.44660247534834
C         4.69295000722932    1.29533155095195    0.09272702523195
N         5.84000529328168    1.14853580669697   -0.50138705599102
C         5.58993340429120    0.45570346739501   -1.76402039234020
C         4.07876521397242    0.32378162270619   -1.88994441761453
C         3.42899450111411    1.14616249555201   -0.77625877898490
C         2.97474979607246    2.58557695008375   -1.15740675457387
N         2.46459920447731    3.34763046257043    0.00095524736321
C         3.29826701685239    4.10280283321741    0.93003146981832
C         3.57530283952454    3.52833828409120    2.34855742815660
N         4.61820511434992    4.41226927608459    2.92223501722952
N         2.36421085560189    0.41990111232291   -0.07112252360318
C         1.24212346676462   -0.14318925243974   -0.61661103572888
C         0.66433348685135    0.47298935180026   -1.86621701342293
N         0.57908548748933   -1.03560188888795    0.03969476917917
H         5.17738180800356    1.78884874013081    3.97692410182958
H         3.99493011246472    0.50253356782828    3.93153500598812
H         3.42179151898121    2.14345946012414    4.42562118492723
H         2.80457549035023    1.64147062481691    1.91679220175102
H         5.74236286434760    1.67039109412977    1.64033503192385
H         6.07188687120531   -0.52001457543790   -1.90007690040646
H         5.98505387833364    1.03816827660057   -2.59927726604496
H         3.73801528649934   -0.71477734403097   -1.80138921732155
H         3.65733603267558    0.69690644058070   -2.83207577683083
H         2.21801090580487    2.68164303040438   -1.94413059865175
H         3.81419320099595    3.17925431449039   -1.54103239477184
H         1.82638345279490    2.75643611941436    0.53089300802356
H         2.69633775463065    5.00318644344286    1.11344405970594
H         4.23775007178661    4.33850329602039    0.41402969632404
H         2.73129947304110    3.74862564505620    3.01629396068936
H         5.44814719642401    4.35633026367034    2.32688249058142
H         4.90859054153428    4.02386779706034    3.81733607167745
H         2.77247129572785   -0.14431802141073    0.66730540328273
H         0.04036732544395    1.32645171079287   -1.61436853678629
H        -0.06808057289739   -0.24250137835407   -2.25112651306953
H         1.45723409396440    0.75087870977013   -2.56799660761721
H         0.96817066277417   -1.33911481305378    0.93385220166560
