39
 energy: -52.270155105761 gnorm: 0.108412701664 xtb: 6.4.1 (79825abcba525fcdf90b791dcacef51065a7a4e7)
C         3.77894443637316    1.62656426329344    3.78721194646846
C         3.66268179286553    2.13431268898413    2.34403279382724
N         4.65780119969144    1.58431008525112    1.43997956798628
C         4.61470884357024    1.29856713612488    0.10042867194947
N         5.74341486852312    1.06518368151295   -0.50107879112072
C         5.47463169029900    0.80980060332595   -1.91505567432849
C         3.96997704588976    0.59710261510174   -2.00259704955773
C         3.33175260350034    1.19235843058823   -0.74675150291057
C         2.71250222202170    2.60048349906772   -0.98599769022166
N         2.46304996593833    3.50483315980922    0.15536419436828
C         3.62580833884907    4.08199679596340    0.82120581745211
C         3.71975762499669    3.68938018087755    2.32320448636295
N         4.96588721694219    4.28796125447864    2.85887870977239
N         2.43170174486145    0.28602772144609   -0.02086580775427
C         1.37231783399935   -0.35293423434438   -0.60664898846965
C         0.66503615234164    0.16815862212888   -1.83271884373763
N         0.86545605863096   -1.34100126996647    0.05181260027755
H         3.63822547518140    2.42390605734730    4.52184265662267
H         4.72139917384886    1.11565350877360    4.00485818040478
H         3.02112600919304    0.85729985606384    3.96542936874805
H         2.72380133143462    1.79104286034334    1.90289052480992
H         5.60566452371278    1.38021665697900    1.75125234653263
H         6.09159671872475   -0.05355248694031   -2.19216902719761
H         5.81194798412414    1.70160306812582   -2.44792110487004
H         3.71849806896139   -0.46978658903463   -1.96999314679994
H         3.54782069570853    0.93258604315200   -2.95845847002065
H         1.75130747868647    2.46581709177625   -1.49470829529791
H         3.37802159009030    3.14065944921526   -1.67125719061775
H         1.74219415688333    3.24422062218539    0.82626815577748
H         3.56493396170550    5.16855946007063    0.67178846336114
H         4.60348780459372    3.74848457073116    0.45059360736736
H         2.78725507280866    4.02812086869021    2.79483359674269
H         5.83301089198188    3.82030923512758    2.58360469468085
H         5.07045109484054    4.48648339980956    3.85187450746272
H         2.91750307997056   -0.29291988624394    0.65671248947256
H         1.25525444213827   -0.03393078646166   -2.72264112379483
H         0.33740823002285    1.20885993859919   -1.75453077920156
H        -0.17516325770874   -0.51451028760305   -1.99531214190681
H         1.37099904247400   -1.60332684063611    0.89953689047297
