39
 energy: -52.268583228227 gnorm: 0.116032939685 xtb: 6.4.1 (79825abcba525fcdf90b791dcacef51065a7a4e7)
C         3.56506092488758    1.59783065215628    3.82084571589192
C         3.64120371813817    2.00047657020213    2.34227543036184
N         4.71154646492813    1.33298616830878    1.62192778236912
C         4.73479102753755    1.25588335134706    0.25393017125554
N         5.89278847772985    1.06654095556961   -0.30593386120003
C         5.66795049516986    1.02549217166047   -1.74973385802849
C         4.22573092022440    0.56863349096470   -1.91758018365543
C         3.53181371492038    1.19532573787344   -0.70739684185723
C         2.92254435822842    2.59572609622506   -1.00938308068508
N         2.22052819485334    3.31387885638758    0.07422737816425
C         3.00650299451522    4.19836709775035    0.92768747226045
C         3.72014386386417    3.54199952467039    2.14377652738000
N         5.09716398234622    4.09144635470419    2.14079038258958
N         2.50381221750175    0.32467950045754   -0.12120149151885
C         1.28701289930001   -0.16686137762113   -0.51042577920173
C         0.54607666807090    0.43348360405341   -1.67902828892451
N         0.89502272720575   -1.28432696134990    0.00374476618699
H         2.72320779366915    2.09184065762942    4.31326369757780
H         4.46322287379401    1.98742110120440    4.30884675715270
H         3.39277517485378    0.51746953630976    3.85175574485348
H         2.67732400626852    1.65685143000580    1.95913724403090
H         5.63695749837469    1.26810495335289    2.04192136321073
H         6.40838438470598    0.35522240985740   -2.20284788769610
H         5.83650639028095    2.04385206932891   -2.10690541483491
H         4.13484816708014   -0.50193009666556   -1.69805523697051
H         3.83879622423002    0.71977231951900   -2.93339255244379
H         2.11795291604811    2.55883173351113   -1.75240950904127
H         3.73129005992722    3.21347163586484   -1.42000153435542
H         1.78417707784100    2.65701241422329    0.71904387015810
H         2.36478423488570    4.98126533552355    1.35420481511401
H         3.80981327943822    4.66014324470528    0.33955795493308
H         3.23613591556870    3.90051634298244    3.06243984103879
H         5.51507212891915    3.54174687710663    1.38609777470599
H         5.66687765976528    3.88360754096976    2.95847898915647
H         2.94187545584086   -0.28471894340450    0.56219426291123
H         1.25539927883903    0.51760082072544   -2.49814070674131
H         0.25402581793569    1.41030221530475   -1.28274005403489
H        -0.28985681155740   -0.21225428124082   -1.96651092575409
H         1.37749495835597   -1.72481494776247    0.78873888023040
