39
 energy: -52.263822603916 gnorm: 0.125807170542 xtb: 6.4.1 (79825abcba525fcdf90b791dcacef51065a7a4e7)
C         4.10619698000114    1.69971255444868    3.74790909491896
C         3.73664631768912    2.07966065257540    2.30806073703429
N         4.83953608596886    1.74850330482808    1.42259661475598
C         4.77008032931977    1.25494123242543    0.14608772005148
N         5.78450242359978    0.70336480057627   -0.45137993640094
C         5.40461117779275    0.38101413141888   -1.82563181494976
C         3.91206965609171    0.63193188738837   -1.98764916607058
C         3.45059177181732    1.20926095653933   -0.64879245745904
C         2.91186368015826    2.61897202032071   -1.03090861360774
N         2.39448874928854    3.57341486983390   -0.02883889668814
C         3.26927453451560    4.23262563346506    0.93483166523432
C         3.56728544427889    3.62642320514228    2.33578932787651
N         4.70929284205178    4.35608094932958    2.93704120103593
N         2.39948664277821    0.44045187031424    0.03131602678288
C         1.35259265578954   -0.18844851646619   -0.58691198646155
C         0.73461032987063    0.12314043768114   -1.92707712916827
N         0.80832399760649   -1.21321418723821   -0.02088730021390
H         3.40054240678100    2.08430814743067    4.48910805505738
H         5.06306816835298    2.02781974893175    4.16427889783879
H         4.05306770696552    0.61170572295094    3.85391080906870
H         2.81428747202197    1.64246419581226    1.91812406094627
H         5.74179759680542    1.67441380886950    1.88888478697400
H         5.58432521476245   -0.69386105358466   -1.94876760464262
H         6.09420975114802    0.97063496430250   -2.43377700101046
H         3.48462093195063   -0.35125670521074   -2.21826798595904
H         3.69281503994551    1.28444579624606   -2.84239426821101
H         2.15115149354395    2.52705642632610   -1.81428932870736
H         3.72167614890840    3.15806809534217   -1.53871356086403
H         1.62274079332230    3.16793259954173    0.49808931904610
H         2.85621629041330    5.25022920560275    0.95753655151598
H         4.25933652697240    4.24655601749270    0.46151977215491
H         2.67084763760260    3.89018285763115    2.91334485426368
H         5.56124811433551    4.03619953589631    2.46989480021694
H         4.76175124310076    4.11367546697289    3.92439777400902
H         2.87521819002593   -0.19896617710542    0.65990149124727
H         1.24762110743758    0.89270071879589   -2.49782781080619
H        -0.32361631324606    0.34417617287231   -1.76030710902058
H         0.52973820028460   -0.79089935517158   -2.49361674553621
H         1.26139709383617   -1.58652253453553    0.81481033320841
