39
 energy: -52.268318433713 gnorm: 0.117693809882 xtb: 6.4.1 (79825abcba525fcdf90b791dcacef51065a7a4e7)
C         4.02510711994878    1.83983780635695    3.96594857766951
C         3.71155136039891    1.99844863824784    2.47242357367290
N         4.63884106811866    1.21992926248998    1.66985324401774
C         4.75916193021358    1.21445469874948    0.30479078072819
N         5.88931872261050    0.82049959869557   -0.20295066060026
C         5.69112355949111    0.65901716469980   -1.64219964688356
C         4.21372854559760    0.80242967695440   -1.97928474472328
C         3.57030563057417    1.27280637222503   -0.67407951209182
C         2.82966336478641    2.63820122483798   -0.77738455197956
N         1.91394730135093    3.08103001019564    0.29413234248854
C         2.51220447157173    3.97199411785848    1.28243456013037
C         3.71591575902979    3.52279784059602    2.15894816501971
N         4.97310953929220    4.02284573182022    1.55272952624714
N         2.63781067000333    0.25416496263683   -0.17282129617608
C         1.39644442973117   -0.02846582337732   -0.67565157359093
C         1.01175975347720    0.48046940604584   -2.04241236939457
N         0.54797355133583   -0.80628309752511   -0.09096837172239
H         3.18783032440560    2.26188467883762    4.52816032968093
H         4.95342948263472    2.39670208090077    4.12323936239925
H         4.24886664798313    0.82399903401436    4.30627373016062
H         2.70960536544944    1.73706302001493    2.12354109642025
H         5.53984613669362    1.06296331205173    2.11767164123825
H         5.99349096740718   -0.38866251199521   -1.75949188551765
H         6.35315066621579    1.27478668660868   -2.25505158010206
H         3.84932294767104   -0.22156648988573   -2.12487897891010
H         3.97111672164176    1.51018444051594   -2.78219126242000
H         2.25333222233888    2.55525519381238   -1.70570520195325
H         3.63371277171305    3.37554584889644   -0.89618747192425
H         1.35201122476103    2.29069231806672    0.60599497209418
H         1.69283320773736    4.15539403484397    1.99070347834141
H         2.68278950470839    5.00324726358348    0.94798180965434
H         3.71190520703984    4.02462733441971    3.13613359075296
H         5.18568265898937    3.45876627859752    0.72628854035403
H         5.79354895749461    3.99016029114415    2.15455684741990
H         2.89991511039325   -0.27274044635797    0.65420202114283
H         1.95590266420139    0.52551069622720   -2.57881229100878
H         0.50739334435591    1.45034791637757   -2.00416499624766
H         0.30602849359991   -0.19530300115769   -2.53605547008190
H         0.85008888657906   -1.06879499221169    0.84862660305899
