39
 energy: -52.268593453664 gnorm: 0.116107533367 xtb: 6.4.1 (79825abcba525fcdf90b791dcacef51065a7a4e7)
C         3.22823954665217    1.62161648021435    3.52780464683831
C         3.52372245765959    2.14512696327389    2.11616794478455
N         4.62030505236191    1.38985453686624    1.53552352486376
C         4.74092347754136    1.23708953698401    0.17905138907555
N         5.87367289948470    1.15818250983301   -0.45412218280637
C         5.57939665405114    0.77955932229323   -1.83500650551327
C         4.10851878916529    0.39155030652825   -1.78155708187002
C         3.45705071626263    1.21977403940051   -0.67320570537423
C         2.92581815724587    2.60857875216129   -1.13422566620775
N         2.61292993914242    3.61697575501900   -0.10077603236789
C         3.74677720400271    4.13353596812560    0.65818766585253
C         3.82496358843830    3.67174047893622    2.14129457296608
N         5.21513371603391    3.86236187368604    2.62001750641311
N         2.44758189955587    0.44439270876772    0.06041096239501
C         1.32703834855757   -0.21719361326870   -0.36431745971699
C         0.64567210618670    0.05633863953527   -1.68187298204648
N         0.68306550048312   -0.97403952617890    0.45984284196728
H         2.35725810902895    2.12164392063826    3.95977911756075
H         4.03712229564410    1.75550368881431    4.25196176582946
H         2.93473358503418    0.56727290206463    3.52216376112558
H         2.61745511142593    1.94848843630383    1.53828387895014
H         5.45375427655234    1.57054971883053    2.09203174698686
H         6.21857175104782   -0.03295784465078   -2.20118578484834
H         5.74774711443116    1.64672967603477   -2.47743407806555
H         3.89411744386960   -0.66520987306773   -1.58193932451583
H         3.56865430851522    0.45067128743583   -2.73522747955592
H         2.00841762235990    2.46943890139436   -1.71717781444079
H         3.73836654393460    3.02008362701532   -1.74636578728579
H         1.87555564447325    3.24033040734491    0.49258857506650
H         3.63059542264237    5.22420961381050    0.71804128508069
H         4.68620181188199    3.99017736283267    0.10921528940920
H         3.05455284417271    4.23807055971758    2.68210674895969
H         5.26377228379890    3.40500768774314    3.53371280830392
H         5.48178814247454    4.82500972677745    2.81646045586704
H         2.71316181370243    0.05756489285558    0.96048160233583
H        -0.29250760667745   -0.48870045471745   -1.61933791250755
H         1.21583291989307   -0.44894461188751   -2.46680491439165
H         0.26999064068148    1.06825170439009   -1.86436638054366
H         1.16174288236850   -1.20927403376842    1.33079494747100
