39
 energy: -52.260431944817 gnorm: 0.111558738326 xtb: 6.4.1 (79825abcba525fcdf90b791dcacef51065a7a4e7)
C         3.75045760450712    1.42179945741397    3.74371760283219
C         3.60726289073184    2.01472031733865    2.33587114202291
N         4.65335984490034    1.39888306290841    1.53805952664685
C         4.76454113160519    1.39083286324743    0.17223505039335
N         5.91738365034813    1.26672719975071   -0.41581958609908
C         5.65429412530752    0.96441502769130   -1.82158869692985
C         4.22750020750390    0.44978254501336   -1.94926823243794
C         3.55933864741686    1.12478817058134   -0.75062920898455
C         2.94515876249469    2.49628804820751   -1.15719672636064
N         2.26085558097163    3.20973138347892   -0.05923976973308
C         3.26006289315174    3.96002747228811    0.69382762116715
C         3.55991991867835    3.56104692496675    2.16687702523336
N         4.70035892168116    4.39636894006787    2.61377872708161
N         2.62523478240583    0.22598286882235   -0.05922778378331
C         1.38786393712711   -0.17029004252396   -0.49002905083217
C         0.55380497118271    0.65416761065151   -1.43852662147251
N         0.72026656477247   -1.11414374554936    0.08461075648867
H         2.91431573258715    1.62848059714916    4.41705831775902
H         4.63878666057706    1.61885563742934    4.35089217450758
H         3.72108735653788    0.34261188947410    3.56396908307727
H         2.61736901341237    1.69528380029773    2.00119575384021
H         5.49824263908280    1.52331948598843    2.09274718230924
H         6.44067464048622    0.23767131687471   -2.05879216316048
H         5.86067637591778    1.82113331360620   -2.46694102882907
H         4.30235964412995   -0.64357068516000   -1.91012700162856
H         3.78634464564323    0.69119758365094   -2.92473567076293
H         2.10737801430415    2.37903263473600   -1.85375357161262
H         3.79242908627538    3.10592522875485   -1.49596240349390
H         1.63880721774667    2.53923745303081    0.38926647372584
H         3.05803423366026    5.03962549062524    0.71121145954551
H         4.19894573583635    3.79234781105371    0.15085110928526
H         2.72814502516694    3.87045979675397    2.81429843304731
H         5.52240872596497    4.30914189252126    2.01128123981464
H         5.13958390428141    4.13083698860830    3.49295987812222
H         3.14651687387924   -0.43536944437554    0.50749411536798
H         0.94670266861721    0.78845192786181   -2.44289634375698
H         0.37604316414810    1.56004210174580   -0.85175169819915
H        -0.38985820645428    0.10222525602800   -1.38136092369362
H         1.11947243634498   -1.60338258581963    0.88729681505557
