39
 energy: -52.257391067744 gnorm: 0.132364164823 xtb: 6.4.1 (79825abcba525fcdf90b791dcacef51065a7a4e7)
C         3.72435706836119    1.47845795221007    3.66750139358753
C         3.60276746095899    1.99664766179276    2.22847848084961
N         4.74045997020023    1.40464227261896    1.54637648201028
C         4.75948148881624    1.28631741181469    0.18126109722281
N         5.91596466133180    1.07059173966626   -0.37215147164357
C         5.73215688565287    0.85634031879851   -1.80641315459130
C         4.25448579829855    0.53750322791247   -1.98451593595169
C         3.55226955294268    1.13572043490801   -0.76474690737019
C         2.85870908623435    2.48712712210828   -1.10562784720868
N         2.25462674519411    3.33945326621014   -0.06092389233195
C         3.20362380454169    4.05299966250302    0.78685324393447
C         3.57912910692439    3.55262152359846    2.21078854443603
N         4.83679434406423    4.24591967075742    2.57916465434618
N         2.63791992083157    0.17676201352290   -0.13008130306359
C         1.29900481226055   -0.03231866839267   -0.32321382163723
C         0.63630377058955    0.27763009384304   -1.64222539132549
N         0.53697010868553   -0.58752483489496    0.55871939802958
H         2.71766614865263    1.55445260170689    4.08706814026142
H         4.56028944798712    1.79245877598766    4.29935672104097
H         3.68594346769373    0.38804273844768    3.58184505518054
H         2.68341202466144    1.59722632552815    1.79352402657553
H         5.60094367516013    1.50587428607049    2.08145556584739
H         6.48553374154543    0.10743585369156   -2.07914311715166
H         5.97090801079812    1.81651458969524   -2.26912554829733
H         4.22032316863663   -0.55559685747929   -2.06527716104457
H         3.96129238332976    0.88947569434089   -2.98180685439049
H         2.08770617748040    2.21407492600066   -1.83488354249691
H         3.45866059086790    3.10306205473487   -1.78751420855559
H         1.57118658662431    2.77608373385364    0.44225444566405
H         2.91489915174030    5.11075158127495    0.85355111493637
H         4.09917468302631    4.03048916499798    0.15287938562477
H         2.95168480048354    3.95468087926583    3.01788345331224
H         5.61580755733249    4.08239452285114    1.93668850628299
H         5.25699448421514    4.04815987892142    3.48509412546127
H         3.03780542381302   -0.55846956757353    0.44421976428228
H         1.26882375144990    0.22228673103721   -2.52427698075471
H         0.25494504509398    1.29169816477308   -1.49141380626896
H        -0.26499209184936   -0.31113987300353   -1.84078057238354
H         1.07084511469874   -0.78264026121197    1.40720766231356
