39
 energy: -52.272349038915 gnorm: 0.106288166277 xtb: 6.4.1 (79825abcba525fcdf90b791dcacef51065a7a4e7)
C         4.06357923435720    1.67492045938607    3.84583659649224
C         3.73787805822020    2.01616277754014    2.38584889512088
N         4.75418187140640    1.50359437817048    1.48336445123757
C         4.76563924059371    1.21003413031182    0.14486005412447
N         5.85223309502114    0.98750492285178   -0.53341062442167
C         5.52649008177426    0.84465118100731   -1.95125402567148
C         4.03478060225387    0.55987762186036   -2.05419316740161
C         3.51320193298490    1.16946066446120   -0.75220529294941
C         2.87269146894027    2.57140916509683   -0.97086725249028
N         2.32786762172600    3.43275393243336    0.09872800381828
C         3.35720235274918    4.11338704125462    0.87698157580578
C         3.53693022868531    3.55792080874810    2.31855346715128
N         4.65887545257123    4.37016388347486    2.84731173735503
N         2.44454421826710    0.36900303216684   -0.13928155368663
C         1.34536568765418   -0.30503759830099   -0.59882976506702
C         0.60773505660862    0.10116675937995   -1.85020166326167
N         0.75056475454203   -1.23697255224897    0.06785319956557
H         3.38753448610964    1.99641493956660    4.64260687362373
H         5.04381333440833    2.10279448060211    4.07536997827249
H         4.15312430287487    0.59221622763913    3.97831754050819
H         2.76963939509743    1.61282506521888    2.07963024976973
H         5.68716312706330    1.41287738410882    1.88124163867123
H         6.18251126537781    0.08334472214672   -2.39041792574665
H         5.79493530472567    1.71535974172112   -2.55361876767650
H         3.77469665340718   -0.50543529955994   -2.05888798588293
H         3.60231996256631    1.13573655386474   -2.88232390761425
H         1.96999641468917    2.40850509482545   -1.57038441434085
H         3.50122962747792    3.29000254789351   -1.51202349989615
H         1.77336804436636    2.83227985256023    0.70669613972591
H         3.13922091593435    5.18125401246494    1.01407247050188
H         4.29530559261341    4.07060973596023    0.30902612348627
H         2.61466402840579    3.78960261297281    2.86854340065255
H         5.51845255095844    4.08143015300740    2.37387988391027
H         4.75393276202234    4.42791450602544    3.85924764943868
H         2.71002018233641   -0.06627516889278    0.73841491787371
H         1.13909776961205    0.02572437622775   -2.79525275436826
H         0.37467288992715    1.16840120954771   -1.79358594838245
H        -0.31137170013698   -0.48645377265426   -1.94159844467731
H         1.32834972510236   -1.46256003418814    0.87920991391201
