39
 energy: -52.260889389188 gnorm: 0.115251622616 xtb: 6.4.1 (79825abcba525fcdf90b791dcacef51065a7a4e7)
C         4.05392330854918    1.86023565388008    3.88821806057274
C         3.65848824901436    2.11613721027612    2.42799990558062
N         4.57220570366350    1.26868505509923    1.68166016506041
C         4.66271807381180    1.17311341599408    0.31763077828650
N         5.83293565122170    1.10548016520023   -0.24475069115476
C         5.65124212428372    0.66499634027061   -1.62669027094570
C         4.16611172818001    0.62123844330783   -1.95739026919224
C         3.47729463595130    1.04161513195555   -0.65830504315649
C         2.94926422343640    2.49288431553127   -0.85458957652580
N         2.13911415515520    3.14151888420195    0.19693871277046
C         2.69793197202910    4.06288711267757    1.18043918385252
C         3.79825560074494    3.64905841649964    2.19877506870146
N         5.13095564897710    4.24035395210126    1.92976709076689
N         2.52909799132539    0.03359301789623   -0.16509975113691
C         1.29270253517866   -0.12965800679440   -0.72935496652977
C         0.86345458545296    0.50660441332678   -2.02779585973316
N         0.40946642680722   -0.89894041698012   -0.18634895256985
H         3.36681724385717    2.17730378859256    4.67726248306409
H         5.01699384115434    2.36199404950066    4.01995371685166
H         4.18703041641174    0.79209784419249    4.08616266660252
H         2.65529197015095    1.75821858356794    2.18421992125165
H         5.48987054479021    1.25628418425735    2.12293923869740
H         6.17352738517065   -0.29644089046728   -1.70200809710310
H         6.07291855052620    1.34019670559669   -2.37457592165368
H         3.95687202853736   -0.44154208119577   -2.12848547724162
H         3.94792516222173    1.27726044672351   -2.80971997572597
H         2.45290970699420    2.64044375657930   -1.82034070750147
H         3.82300760699919    3.15263069639099   -0.92938185276652
H         1.51674474611457    2.48610467622422    0.66678193384101
H         1.93111036841465    4.38616363446639    1.89746538549603
H         3.10475361782406    4.89657438094042    0.59400706029494
H         3.51304721659163    4.09873818632231    3.15960000698369
H         5.48587931024198    3.87101408543093    1.04433221474562
H         5.74899050891236    3.84759301869698    2.63698492439874
H         2.71311874006001   -0.60809508047878    0.59953633352132
H         1.73599892340258    0.50572956090016   -2.67573492985745
H         0.46776801867488    1.48564071864742   -1.74243167966119
H         0.14528839050666   -0.15201209174936   -2.52666466201335
H         0.57838734716758   -1.19162429476574    0.77740763113974
