39
 energy: -52.263884120833 gnorm: 0.120198559221 xtb: 6.4.1 (79825abcba525fcdf90b791dcacef51065a7a4e7)
C         3.62650284658107    1.33362730981615    3.51034799193905
C         3.59533167653910    2.02827059164558    2.14265262636063
N         4.75216396552423    1.59103991176229    1.38065122801380
C         4.80073917977938    1.33276037519530    0.03572196744556
N         5.91800723894602    1.15380386816662   -0.60454594213692
C         5.56499696810091    0.70036304039606   -1.94863325429385
C         4.05945329543507    0.51079086179709   -2.06817473728537
C         3.52305316500079    1.20725517204037   -0.81676740418595
C         2.90132283217918    2.58724913835803   -1.18090197833528
N         2.53874920408393    3.56391666601643   -0.13331304633925
C         3.42871141906438    4.18314728453614    0.84289934611921
C         3.49932139697589    3.57607356819374    2.27309163645818
N         4.56268901595663    4.17074345481661    3.11790058515114
N         2.66764301294533    0.33159181681237   -0.00441030009041
C         1.43521705634058   -0.21685117929672   -0.23688627975502
C         0.69668380946595    0.34806061439591   -1.42452078400560
N         0.84579349428291   -1.11883683599341    0.47428085513129
H         2.86479268687509    1.91978195618643    4.03136470415243
H         4.60728006105369    1.52927065948033    3.95354135245393
H         3.49055703550123    0.24903544805496    3.45560151186512
H         2.62375762043597    1.76617248989770    1.71687612077404
H         5.59985686185530    1.99997618566664    1.76946690755415
H         6.12447488107643   -0.23715621757774   -2.05283653223368
H         5.93469344670954    1.42591833153977   -2.67659858217228
H         3.85427022856060   -0.56620669924120   -2.04507884481003
H         3.65267030904420    0.87089959496791   -3.02173934902787
H         2.04952881390308    2.51596999053408   -1.86660094156093
H         3.73764667682253    3.03715714486958   -1.73084004823202
H         1.72455103885679    3.13988710617016    0.30821203747003
H         3.01182003741484    5.19936063138764    0.83018460552336
H         4.42013576916856    4.30146060414529    0.38735499149906
H         2.51528671292186    3.89053360024436    2.64662999571067
H         5.51710672755488    3.88369646105678    2.88753453727999
H         4.53393974576777    3.74657353036419    4.04290796755422
H         3.24567528244118   -0.35296649290944    0.47261614292126
H         1.15453693103899    0.32315450615184   -2.40986824384720
H         0.28364319254437    1.34184145908680   -1.22879205464476
H        -0.19654841265039   -0.28447873837280   -1.44546435727986
H         1.40454091353946   -1.45608563629135    1.25983126466851
