39
 energy: -52.265517261132 gnorm: 0.126113772103 xtb: 6.4.1 (79825abcba525fcdf90b791dcacef51065a7a4e7)
C         3.83543703911502    1.49208919478328    3.67752463258496
C         3.74731930668919    1.97216216369424    2.22292614435842
N         4.93049416566516    1.80556164429614    1.39683941071752
C         4.85041244150916    1.27200422828104    0.13715452340847
N         5.90949929838539    0.85782383354029   -0.49296133824064
C         5.62315863088911    0.28436997242973   -1.80671749206919
C         4.15225628848603    0.57601076679673   -2.06802473871534
C         3.59965103114329    1.12147409695499   -0.75048720707988
C         2.99088232655272    2.52745321826143   -1.02643897100746
N         2.23615914549383    3.34273170336403   -0.05253157822759
C         3.03947875796270    4.11150033116173    0.89200130321676
C         3.42847612851456    3.49480027851495    2.26580491647910
N         4.58427461034870    4.34408616932742    2.64120935508113
N         2.63523422003906    0.25188542076637   -0.06335353404367
C         1.32799446494043    0.02792404235473   -0.40198915976525
C         0.55582909537281    0.75415119917235   -1.47501626747017
N         0.73164830326472   -0.92052655836180    0.23954781820393
H         2.83650638001769    1.67300749606602    4.08328830438721
H         4.70400529313557    1.92523721078345    4.18209633594960
H         4.01298968694639    0.41406024092186    3.74191858791080
H         2.97098991176666    1.36239831933096    1.75448411728042
H         5.78161514316075    1.46602462261113    1.84102119509171
H         5.92256187279449   -0.76844128876999   -1.73770761115902
H         6.31061330898980    0.73907157039450   -2.52344059646150
H         3.70460873647146   -0.38106949397310   -2.36156570955320
H         4.14994445954158    1.23905198091271   -2.94255728387434
H         2.34855056716421    2.42616080644795   -1.90846313107595
H         3.85504949472753    3.12664523902307   -1.34023939504576
H         1.59617502870030    2.69800997209205    0.40835707087504
H         2.42175359341428    5.00069335007487    1.07747652564029
H         4.00785177714769    4.35612193678585    0.43718824172699
H         2.64363175968827    3.66560276958991    3.01519541017766
H         5.32630796398537    4.16993516406239    1.95898095081040
H         4.91789046868939    4.25943079380541    3.59929036991309
H         3.12225651327891   -0.32255844856701    0.61717503565647
H         1.20307024647120    1.08269883099233   -2.28390115767204
H        -0.03970186558149    1.54452696717331   -1.00901017514923
H        -0.08083960241801   -0.04565291649621   -1.86664723627824
H         1.28215629649402   -1.47939701622568    0.89348179280142
