39
 energy: -52.258959223721 gnorm: 0.124827380802 xtb: 6.4.1 (79825abcba525fcdf90b791dcacef51065a7a4e7)
C         4.03685635889900    1.54011747392038    3.87765444423752
C         3.69957344495706    2.02709857851922    2.46231661215396
N         4.68368168865924    1.44374566042528    1.56715848011661
C         4.77106066499952    1.13813010096313    0.23416686574044
N         5.89594434069482    0.97867034008708   -0.39786609215448
C         5.59781634011211    0.80957734999116   -1.81889487414012
C         4.09960664564265    0.58305868497411   -1.96362407380284
C         3.53191313915958    1.19146567078371   -0.68051340669966
C         3.07587113016097    2.67457862443387   -0.80671825898889
N         2.08643369546244    3.16022817018562    0.17712105519793
C         2.64415992511140    4.10196374896706    1.14176892891940
C         3.64853969732684    3.55995834611868    2.19837939459473
N         5.00452786372203    4.09070008872779    1.91964219034363
N         2.45071776294511    0.41682580394510   -0.05650492701392
C         1.27970270738884   -0.05014960549195   -0.58976497878123
C         0.86068714152330    0.26592680487809   -2.00382087716915
N         0.64180723213474   -0.92577831286059    0.11246056460889
H         3.33454790911164    1.94575085829107    4.61077274644561
H         5.04156556081294    1.83016108893032    4.19867584108391
H         4.01068747161517    0.45072402188239    3.97941417311410
H         2.70538968969085    1.66228953599812    2.19315082943495
H         5.59003887726532    1.72938439478534    1.93310509430613
H         6.17006432990333    0.02995826805548   -2.33614002210170
H         5.89234889275012    1.80591360847261   -2.15594698530556
H         4.08425995716676   -0.51338596487366   -1.95218421049341
H         3.69624024056748    0.81138461675656   -2.95840996829177
H         2.51121780865781    2.74453104908059   -1.74324917215154
H         3.90337887720858    3.39524921599625   -0.79440977829937
H         1.56325155445866    2.39476415396821    0.59903267372230
H         1.79514178944235    4.48871745908914    1.72163049250971
H         2.93677648466102    4.98446885527417    0.55867268009504
H         3.46527659412824    3.96257398940237    3.20389198082734
H         5.54988143434386    3.78266598227839    1.11088874642171
H         5.60158915101887    3.98582628846162    2.73750807692600
H         2.72156272599169   -0.07829079451517    0.78717639580106
H         1.43804851880136   -0.22211782576202   -2.78460618629643
H         0.88671120140541    1.35129871895994   -2.13724957000444
H        -0.17365071283080   -0.06241020443196   -2.14786419679983
H         0.91386173997402   -1.14085246518574    1.07306159321144
