39
 energy: -52.263318492085 gnorm: 0.118756551805 xtb: 6.4.1 (79825abcba525fcdf90b791dcacef51065a7a4e7)
C         4.02538390023082    1.45103057618700    3.59952168432711
C         3.77346145709937    2.07835974524416    2.22217469348098
N         4.88843542406921    1.67946492101070    1.38086993129129
C         4.82956199835197    1.31972411905462    0.05987672194925
N         5.91301711179720    0.82275059272223   -0.45915958158127
C         5.57367869803769    0.19743347690746   -1.73611826771381
C         4.24808054748878    0.82399123277195   -2.14490237989996
C         3.58633886146007    1.29901284234977   -0.85058388762330
C         2.92805960623682    2.69936284598367   -1.02150567660732
N         2.05322977641605    3.21890132549925    0.04972456460402
C         2.69624103432405    4.09990231168383    1.01866405558808
C         3.39178392940786    3.58448048902099    2.31076880083846
N         4.58732698589141    4.38440075207439    2.66978063858800
N         2.73257158235545    0.36144431840571   -0.10863805571177
C         1.47740900118299   -0.07865324527249   -0.43204117940196
C         0.70495261851498    0.44719751812146   -1.61602788635043
N         0.88335845169106   -0.99936914991900    0.25070557841277
H         3.25274670992588    1.57475131945256    4.36304181695118
H         4.99465989809416    1.73491309248080    4.01968281101923
H         4.03342637827824    0.36989613808294    3.42951699507198
H         2.97861365909833    1.51710724496152    1.72503305452813
H         5.82078898482694    1.70440122642751    1.78962996358464
H         5.42260810498996   -0.87709448207869   -1.57679608173772
H         6.39234313859660    0.27324084478652   -2.45520189310921
H         3.62625482660399    0.06125651914422   -2.62876784262469
H         4.47868628215110    1.59985564746768   -2.88604445153295
H         2.29270038270509    2.62851139216985   -1.91151443145748
H         3.67714500247890    3.49265197683984   -1.13919206823510
H         1.56528389260607    2.50081143410285    0.58256585721217
H         1.80537473632495    4.68146509449320    1.29214463555512
H         3.43139056428066    4.75880460876047    0.53924369972257
H         2.78548572893813    3.66179513974547    3.22354763996755
H         5.22035541843544    4.19508772115728    1.88887523839750
H         5.03563606486337    4.15040837717451    3.55332567938825
H         3.17182640027071   -0.24584471653261    0.57586967762257
H         1.15108479928703    0.35416482036140   -2.60267392694865
H         0.42849852098710    1.47592928288186   -1.36743837304388
H        -0.20050095116122   -0.15788980319922   -1.50453063169867
H         1.27392957321749   -1.41789309695163    1.09646960011062
