39
 energy: -52.261341564836 gnorm: 0.123503876771 xtb: 6.4.1 (79825abcba525fcdf90b791dcacef51065a7a4e7)
C         3.99219060196804    1.53245633681056    3.74908505753669
C         3.79272863282161    2.02782508667887    2.31071227011951
N         4.86495898714021    1.55997349175772    1.44959978699348
C         4.83351960103245    1.37240407419318    0.09249556069039
N         5.79047437841126    0.72617157190758   -0.50489666456555
C         5.50194942316493    0.52295047806166   -1.92343467230585
C         3.99024935804313    0.64371996244459   -2.05407610977259
C         3.55068896505246    1.33092255248940   -0.76049687219325
C         2.81518772728608    2.65651465023644   -1.11457245723737
N         2.40484070655509    3.48264887796342    0.03950694936560
C         3.46772810564804    4.08691842834899    0.83549606107682
C         3.49188508553106    3.55465937724868    2.29669112833069
N         4.42314069791014    4.35581357792940    3.12675141307278
N         2.54570165600668    0.48907120577545   -0.09738016834425
C         1.44993804430538   -0.20034673655768   -0.54203009926266
C         0.66138339032850    0.15207898364132   -1.77856157213408
N         0.77865693153708   -1.07181228680391    0.13375569043331
H         3.19392014083454    1.83001329724955    4.43425815554077
H         4.87750482890669    2.05222230274026    4.12681867027570
H         4.23067158785587    0.46472876077305    3.71904187062216
H         2.89694783785544    1.54894968459173    1.90798118609497
H         5.78384168095559    1.78859558572411    1.82426803086745
H         5.88880481711869   -0.45403731054646   -2.23752699125754
H         6.06346754487837    1.25179353577808   -2.51209814507138
H         3.62432605698827   -0.39003318324178   -2.05063527592544
H         3.73683640026301    1.13697496064379   -3.00113342242338
H         1.86281546507437    2.50784594147448   -1.63582244061201
H         3.47004154796257    3.27486571479148   -1.74154543018052
H         1.76362820758663    2.99669710768935    0.66429614405794
H         3.18727013749824    5.14803734935071    0.79055577910976
H         4.31775695115989    3.96061804229328    0.15289798687093
H         2.48969415058447    3.66840590281989    2.73190986135597
H         5.37946500669081    4.08509473814855    2.88481590064135
H         4.16847792088715    4.15675999254471    4.09210619039329
H         3.01358488633799    0.02060938524340    0.67198608080309
H         1.24199660297393    0.24817311271880   -2.69224293444440
H         0.16300800150055    1.11605539532860   -1.64114212064968
H        -0.04264819780673   -0.68025161897103   -1.87843028110856
H         1.26459609633434   -1.23000628296428    1.01798567865555
