39
 energy: -52.267671966747 gnorm: 0.120150793156 xtb: 6.4.1 (79825abcba525fcdf90b791dcacef51065a7a4e7)
C         3.51311921888942    1.58884482664467    3.68251318063437
C         3.56326342910548    2.09275798785028    2.23418703351144
N         4.62711673141899    1.47908811376501    1.45849173866855
C         4.64273943714088    1.29601535911292    0.10049950608518
N         5.73476834061909    0.87424107314056   -0.46504067486266
C         5.54291690339325    0.35681503328765   -1.81865024046413
C         4.04123908545540    0.43614160027076   -2.05436308249392
C         3.43940056111923    1.16753355831929   -0.85366989706876
C         3.02415762084131    2.63377680269509   -1.17183654302728
N         2.66874049138428    3.58244751020158   -0.09643697540500
C         3.71298811281142    4.14028020203061    0.75611187775882
C         3.66024246350498    3.64598125304425    2.22983529735653
N         4.93418383252301    4.08972283027394    2.84485720297904
N         2.50934165554216    0.37954314159430   -0.03360986940205
C         1.32347269967175   -0.23325349712847   -0.33676600986376
C         0.61110994359733    0.34764619520869   -1.53264529438593
N         0.76366024923020   -1.10826748934208    0.42986133816639
H         2.44993269497583    1.52956315908382    3.93021894893527
H         4.03267692171711    2.23960753429657    4.39187085368184
H         3.91459661456980    0.57769037670440    3.80167914394974
H         2.59954012898885    1.81267673226964    1.80206541520652
H         5.53651024937631    1.38966802438104    1.90793275984536
H         5.91753823723281   -0.67273506335510   -1.76863354019170
H         6.19072807221878    0.99376593108680   -2.42501129128896
H         3.61602437804385   -0.54912402228596   -2.28019786302305
H         3.93239237919549    1.03770697365098   -2.96579474071848
H         2.21857980805376    2.53917761825851   -1.90866232383533
H         3.87735920992194    3.05043037111640   -1.72204879566337
H         1.79247040885252    3.42740100138283    0.39932046121198
H         3.49075356878297    5.21446051976546    0.81440520873704
H         4.66655652530874    4.03386083150516    0.22336132854631
H         2.73290140174957    4.02140778587172    2.68352435028840
H         4.66719439351360    4.43637561912941    3.76947936882274
H         5.20708823303384    4.94265963109128    2.36070091834797
H         2.99146585097946   -0.02436419177866    0.76307748093746
H        -0.28681959085147   -0.20276516978161   -1.80084167818140
H         1.23575315744143    0.40122289290288   -2.42900629642620
H         0.33475143479656    1.38960600941355   -1.34197756858083
H         1.37182749571163   -1.60470130682079    1.08309249380911
