39
 energy: -52.266996496040 gnorm: 0.110032103564 xtb: 6.4.1 (79825abcba525fcdf90b791dcacef51065a7a4e7)
C         3.39420173554188    1.71366946649280    3.56998978509490
C         3.56512668769419    2.18442060861311    2.11972443532267
N         4.70255312281285    1.51585367090260    1.51197684713029
C         4.74002952002238    1.26473176834321    0.16533809857545
N         5.82384789313628    0.93715862294472   -0.47363759134711
C         5.54202400047020    0.52883140516787   -1.84864294296452
C         4.03121664246816    0.38239950763448   -1.96225791236035
C         3.49409387347824    1.10840761396667   -0.72807019489990
C         2.97056320579567    2.52583032872223   -1.10270926653376
N         2.77193700749592    3.72277473161959   -0.25970666131083
C         3.89424772168343    4.13038539809867    0.57859051823815
C         3.74390586910720    3.72969093624590    2.07385489307034
N         4.75038365101671    4.12669557274890    3.08749927617260
N         2.56208497388669    0.21585575014436   -0.02582558453547
C         1.33724479579787   -0.30585398648952   -0.34409281055022
C         0.40696411729911    0.34403579452130   -1.33769914257807
N         0.84182649758609   -1.35001465531954    0.23127330793560
H         2.80555010848254    2.45956928913288    4.11069374084113
H         4.36731695890500    1.54762343174419    4.04126051201337
H         2.89467009189732    0.74215527846756    3.50330940581423
H         2.70725380819122    1.81878316614474    1.55025047333941
H         5.59633727405442    1.77680401084057    1.92434145777144
H         6.02725132585297   -0.42735607150071   -2.07902560280351
H         5.86799693274046    1.34558603070048   -2.49648012716146
H         3.71828702019549   -0.66247492905898   -1.84881308656927
H         3.58979951756769    0.84245365278147   -2.85553126608466
H         2.11585220385664    2.47929920468813   -1.78690280441457
H         3.69723962860106    2.94800039320833   -1.80840076257247
H         1.91782079066541    3.71529000986535    0.29535512116200
H         4.02346215248810    5.22041310543367    0.53624802157119
H         4.84213597038548    3.68559956089909    0.24978301017134
H         2.80331591773741    4.16871113732415    2.43342699103313
H         4.46674379595321    3.90103020532264    4.04405624734315
H         5.05162895021097    5.09667901442631    3.01844352901083
H         3.08793559034998   -0.36185720038945    0.62226737781779
H        -0.53181636714880   -0.20354750238135   -1.33592266229989
H         0.96927290509696    0.37423075525044   -2.27546763772511
H         0.26246469133206    1.41276171968758   -1.14967447578106
H         1.32203907262083   -1.84875578044585    0.98205826303531
