39
 energy: -52.264593753963 gnorm: 0.120314984543 xtb: 6.4.1 (79825abcba525fcdf90b791dcacef51065a7a4e7)
C         4.13650883766885    1.50638838865473    3.69760815574691
C         3.80994452755539    1.94508737219821    2.26408435703569
N         4.86501322381454    1.43698994195342    1.40458172931557
C         4.80207896400408    1.32220998069478    0.04048224176316
N         5.88797144342889    1.37950640653571   -0.67212633334506
C         5.55049712088000    0.83461538709170   -1.98589967731603
C         4.09580696618129    0.38759697297102   -1.95523007650543
C         3.50028288993494    1.13883640077458   -0.76367715739481
C         3.00440353861092    2.53476439165943   -1.24223194767520
N         2.37503452433660    3.35330289869575   -0.18550537159813
C         3.29601658370246    3.98417917069992    0.75378006507246
C         3.41401504650700    3.44913992530914    2.20938427466953
N         4.25041814773066    4.32799684675148    3.06151424221785
N         2.53287008600295    0.38768289170567    0.04769068652750
C         1.37263270347303   -0.21314611274126   -0.36042971438128
C         0.63255851179713    0.50640773412877   -1.46023190958470
N         0.66060967978482   -1.14629839206493    0.17716399011439
H         3.49344364442560    2.07858831634431    4.37162035578639
H         5.12736749583928    1.82705695369837    4.03225932322357
H         4.00809131772456    0.45186616745073    3.96087563738671
H         2.90389525833793    1.41736601435435    1.95663991825283
H         5.80856193481322    1.75753462920148    1.61424023423994
H         6.32360808603555    0.07533593489809   -2.15504566903285
H         5.69362956761753    1.65728338890113   -2.69000900778846
H         3.98183475606112   -0.65750583582566   -1.64325616690492
H         3.63090372086514    0.55649547266400   -2.93491086054420
H         2.32263575567647    2.35550304046220   -2.08120447841675
H         3.83283354173433    3.13706594864937   -1.63621574305854
H         1.84539151223041    2.73617157079178    0.42792052612234
H         3.01158032655759    5.04148371725153    0.84239590091467
H         4.34528365160886    3.96089950477378    0.43294112642796
H         2.37740371902372    3.42777034562626    2.57231756182465
H         5.23925666902519    4.19412517812098    2.83644888246907
H         4.00445056709301    4.06049990490018    4.01247724773354
H         3.03778470398389   -0.14511500460102    0.74874934250930
H         1.11416804162136    0.46751141679714   -2.43373011412946
H         0.44631631537897    1.54517807743916   -1.17251212294143
H        -0.35520345888093    0.10106162682382   -1.70195340990802
H         1.00659178957365   -1.38216109810296    1.10866280658095
