39
 energy: -52.263172630279 gnorm: 0.115936081035 xtb: 6.4.1 (79825abcba525fcdf90b791dcacef51065a7a4e7)
C         3.78471655067613    1.64094428129260    3.78673172897576
C         3.70827858813564    2.03826111054471    2.30673574636205
N         4.71089733458923    1.33294075192549    1.52740489385988
C         4.76525383365300    1.24606973093503    0.16087593670383
N         5.86698900764136    1.09341497030849   -0.51227522538603
C         5.49014892724289    0.72937308995839   -1.87692192158279
C         4.00149795706887    0.43957229617405   -2.00662668961795
C         3.51246401249394    1.12105830480270   -0.72786534444184
C         3.09691115691159    2.58331602890502   -1.06349038141804
N         2.41998058430560    3.46986514359185   -0.09468835730403
C         3.31739830430378    4.16899010509419    0.81873141342574
C         3.58067767052773    3.58771113886190    2.23710124713616
N         4.66402585896425    4.35943363793633    2.89199529217291
N         2.48211005624203    0.36581248190444   -0.00232320522682
C         1.30995187359760   -0.18270890252743   -0.44828065170764
C         0.60478328593386    0.37695719376079   -1.65846391841052
N         0.87020720126000   -1.29460304097995    0.03862079783464
H         3.38972561384203    0.62312318810600    3.84383189335136
H         3.17064206726046    2.34546493683018    4.35522428976100
H         4.72875331248079    1.70630479077162    4.33658674467733
H         2.75774846057337    1.73232752492416    1.86307560963393
H         5.64745651057574    1.60847750096649    1.81710503884105
H         6.09491885473328   -0.15477283348787   -2.11219950462522
H         5.78291779382184    1.51957152357694   -2.57184084772672
H         3.97823323820733   -0.65273084356590   -2.10091271645376
H         3.56391516203603    0.91488535975825   -2.89377660011543
H         2.32366229462444    2.40870692951912   -1.82007132576818
H         3.99616738588533    3.09907583024045   -1.42351362347700
H         1.66882902717855    2.96661757417814    0.37454222945563
H         2.94116309290854    5.18771895121517    0.98392299384688
H         4.27327308306180    4.39312865787324    0.32831703577722
H         2.71008902293170    3.65819621280296    2.90332008639319
H         5.46033024333516    4.19035050190632    2.27256984453502
H         4.95403595910199    3.93044431277228    3.76849264075247
H         2.87973634181762   -0.25405610929017    0.69621232048150
H         0.57163242581147    1.46324637849142   -1.66448439182565
H        -0.42937719464479    0.04254692428055   -1.78172999710366
H         1.08639410876443   -0.01417440527393   -2.56039271399615
H         1.42999432092119   -1.66798139326562    0.80689930830907
