39
 energy: -52.263227811373 gnorm: 0.108490415883 xtb: 6.4.1 (79825abcba525fcdf90b791dcacef51065a7a4e7)
C         3.86671600199630    1.45734094809363    3.68731993921534
C         3.64532827077858    1.91274176296267    2.23897981300920
N         4.77340294472090    1.57993772583631    1.38647364698312
C         4.85261634799552    1.34827614034897    0.03815589431443
N         5.97585739231344    1.35481926725143   -0.61647615101692
C         5.73040618553800    0.90613292836893   -1.98586646045557
C         4.28591601554774    0.43395034314024   -2.07178095215453
C         3.61891759297769    0.99569278632940   -0.81545037094302
C         3.09704718560368    2.40941324042201   -1.20605477261889
N         2.42036665057808    3.06510857618055   -0.06809659611829
C         3.07114208219132    4.00658492002505    0.83665950864951
C         3.35309665808784    3.44119543069975    2.25785992530052
N         4.48106364438348    4.24776673816997    2.78247249559054
N         2.68913843406348    0.07806311179302   -0.14321272822635
C         1.32520388435591    0.02649128989436   -0.24680550767321
C         0.58028800965712    0.69971477272373   -1.37237332566919
N         0.53954899722648   -0.67445543678122    0.50030697669392
H         2.98122315944140    1.34453835025720    4.31852200398020
H         4.48239723135102    2.15956984687696    4.25690910373653
H         4.40606888991667    0.50506252241243    3.69638703148911
H         2.81841751501168    1.36535787958834    1.78014793512058
H         5.63637961129314    1.70399076588646    1.91265980903372
H         6.39302304397811    0.10643954446026   -2.33835136954142
H         5.92236749620870    1.74178173247325   -2.66253582009536
H         4.25246273094506   -0.65184394007494   -1.92181786701561
H         3.85327990408822    0.63497496582474   -3.06013881907898
H         2.35073060318518    2.44946228148266   -2.00744387711581
H         3.97130404781337    2.99106132744236   -1.52487623825799
H         1.76323906024435    2.51808989599789    0.48563440633393
H         2.43312865688246    4.90066146879563    0.82197420876957
H         4.02044837021854    4.31613743812768    0.38120833986313
H         2.46843026218557    3.60341369169478    2.88856658538036
H         5.30951233919531    4.01510937565867    2.22937125916344
H         4.63097770940847    3.96586152823462    3.74913713822307
H         3.10500696405079   -0.67669326530493    0.39315635160898
H         0.94802611422295    0.67013366210412   -2.39465169455888
H         0.49138064148832    1.69539961149330   -0.92827891120127
H        -0.39042466366837    0.19363262574062   -1.36987591942391
H         0.84052776649226   -1.30519944226948    1.24502078617107
