39
 energy: -52.263589146054 gnorm: 0.120887373504 xtb: 6.4.1 (79825abcba525fcdf90b791dcacef51065a7a4e7)
C         3.63468201823017    1.91581972158476    3.88401756771698
C         3.56200413420430    2.09848412334451    2.36235953059180
N         4.54952652178952    1.22899297871927    1.74684151415872
C         4.69172823681847    1.03376266036162    0.39792847722434
N         5.87067266598190    0.71546751391146   -0.04820443890385
C         5.76185072277111    0.44872663579439   -1.48131386417232
C         4.30768191449880    0.67817706063694   -1.86814083074775
C         3.57711777949289    1.23759851587362   -0.64661243237812
C         3.05932130913884    2.69089555131074   -0.85479622780650
N         2.08973311772625    3.25744838983564    0.10525497379175
C         2.68862187087241    4.17098457918370    1.07234020921791
C         3.81694478380841    3.58165557758774    1.96595813324833
N         5.04400495101303    3.89098857876376    1.19348057960482
N         2.57343506342140    0.33588160839750   -0.06526524392465
C         1.34624763576774   -0.09154651784071   -0.49541030761677
C         0.66800364719704    0.76572277035326   -1.53469221322176
N         0.82311414495745   -1.20513669969018   -0.10425147955288
H         3.04496906968056    2.63668308475489    4.45658432782930
H         4.69041702417009    1.86236209784475    4.16541852207551
H         3.09903436451219    0.99282588740165    4.12687950792092
H         2.57843022844779    1.78339415994970    2.00565533743300
H         5.31712511332632    1.00183943046504    2.37627253835587
H         6.07697783625993   -0.59128857934998   -1.62923096796437
H         6.37397166335737    1.20957257711509   -1.97066127992480
H         3.79541109043022   -0.22412812278873   -2.22307915575632
H         4.21859102450635    1.38529898289601   -2.70269314924870
H         2.68268890185358    2.86364668210872   -1.86925269128982
H         3.89863908973551    3.39785878565838   -0.84885387499939
H         1.57809587662492    2.45260059538982    0.46318162260438
H         1.79801066159684    4.52293266777505    1.61047947937497
H         3.04497422091579    5.06003692894848    0.53657918796748
H         3.90796858023377    4.10760716542384    2.92607785248916
H         5.22514606303666    3.24380204948421    0.42230280779858
H         5.84836700957856    3.91073302462496    1.81717693024660
H         3.14308753354761   -0.40760728371221    0.32590729460685
H         1.43421983833341    0.77397002362102   -2.30540886604489
H         0.48933298210341    1.79442959267296   -1.20857609489055
H        -0.29616477680895    0.40703533922715   -1.90903301813991
H         1.42787670794200   -1.61831366096413    0.60748718473129
