39
 energy: -52.260224873206 gnorm: 0.125556194960 xtb: 6.4.1 (79825abcba525fcdf90b791dcacef51065a7a4e7)
C         3.95170728744180    1.55206627370939    3.74022505523145
C         3.65161410554652    2.05468677088868    2.32198379783120
N         4.76541522014701    1.61146237826018    1.50157112119411
C         4.81736448759205    1.27916990495008    0.17311879690376
N         5.92013171361142    1.10546210276624   -0.49320424434583
C         5.51292811489975    0.88993462340289   -1.88047807452048
C         4.06106046094378    0.43529205260997   -1.92812248503963
C         3.53443544333066    1.11899473097242   -0.66557556800477
C         3.05548589973301    2.56552938169893   -0.98443420158060
N         2.17671747014798    3.16124534432817    0.04302394606405
C         2.89094945243543    4.08120715627277    0.92166659428183
C         3.58177057474242    3.60675899621327    2.23187244847281
N         4.86526419137562    4.31423624419747    2.45593764593648
N         2.58311577849596    0.22581697628381    0.00945133463579
C         1.41260889600132   -0.26094818757687   -0.50696116074628
C         0.74676098666165    0.53117245456964   -1.60433250359446
N         0.68190410586532   -1.24405469790518   -0.09912655905218
H         3.21423967920135    2.00588217106179    4.40763100858712
H         4.95271774945830    1.79711762285798    4.10703359923390
H         3.72498389369513    0.49052902620430    3.88005753546725
H         2.78138143209274    1.46653845793444    2.02079639272691
H         5.72308227610467    1.56547315702415    1.84471621984286
H         6.19098484362559    0.13910531604897   -2.30392895063389
H         5.68104970012918    1.79420879591676   -2.46959847165686
H         3.99114373498776   -0.64558382501664   -1.75672745307087
H         3.51662318774983    0.57017522123112   -2.87143089642904
H         2.59478551912503    2.58410870170363   -1.97853018303091
H         3.85533865156371    3.30565169131483   -1.11382202133988
H         1.50579773727822    2.59232893302113    0.55670181159096
H         2.08459083555431    4.77855929763154    1.18649754366410
H         3.65310790570690    4.66555632078422    0.39054373002667
H         3.10382060069822    3.89081622910247    3.17929821979198
H         5.60935678990704    3.79664436848830    1.98180420596372
H         5.09218126606548    4.40121723454498    3.44453678173318
H         3.06558509977468   -0.34797816347093    0.69375981647375
H         1.25871034388805    0.47487639194458   -2.56135811820039
H         0.51126508050281    1.58552750749306   -1.43289811004916
H        -0.25502753364008    0.14640234713335   -1.82061978242473
H         1.06644374285964   -1.78923414472668    0.67413505016457
