39
 energy: -52.266342650563 gnorm: 0.121911281584 xtb: 6.4.1 (79825abcba525fcdf90b791dcacef51065a7a4e7)
C         3.59627203212543    1.67747714315385    3.86457240042446
C         3.60736038758574    1.98084206858078    2.36059822308462
N         4.56810798114338    1.15899109907782    1.64533405903640
C         4.74520563864021    1.20459901640503    0.28722545754427
N         5.92703621015941    1.10316189915875   -0.24498069460345
C         5.77225150618882    0.85841110058945   -1.67778713195760
C         4.28126933142807    0.80842639017694   -1.98005061734784
C         3.55903793355084    1.22037807415266   -0.69650646407985
C         2.98937268594106    2.65348674935315   -0.90912594134405
N         2.14132763476508    3.19510616044861    0.17265486672196
C         2.79806899170731    4.13122014333185    1.07866335121674
C         3.79102167109723    3.50376974245761    2.09813637582498
N         5.17462957623670    3.85263647516717    1.69563630127682
N         2.61304030464056    0.27935210659290   -0.08169303308923
C         1.37261407590545   -0.13270582343066   -0.48821435567850
C         0.75780736871014    0.34981610807861   -1.77825997868064
N         0.58874600341545   -0.86555912322337    0.22958356536134
H         2.69839539190800    2.01637534819543    4.38821693057464
H         4.39369476633057    2.26850083139949    4.32438606314202
H         3.78967303368231    0.60096220509093    3.90368241421386
H         2.69125923014128    1.63028667566149    1.87913503884739
H         5.51017172376719    1.18761986289355    2.03093239228761
H         6.30396218271794   -0.05323485094622   -1.97611854703925
H         6.14053223157108    1.75733007966457   -2.17714017982911
H         3.91587550058304   -0.18621295562898   -2.26242835255826
H         3.83630603953000    1.36351549356783   -2.81570600883985
H         2.42068495305422    2.55620705636178   -1.84076309676800
H         3.79363423953173    3.35864613870070   -1.15448335908774
H         1.60967106140297    2.45285965718014    0.62440207889788
H         1.93463720250487    4.54312089742644    1.61854572440157
H         3.22213399554575    4.87400234549417    0.39099742393154
H         3.47427927447355    3.92209982477265    3.06323455003143
H         5.50010584667524    3.24992092535409    0.93591475487053
H         5.83343075737297    3.94149727984108    2.46665514978087
H         2.94487661669986   -0.05783194393883    0.81635328331284
H         1.45090140359313    0.52793847289964   -2.59621627291509
H         0.13410128962565    1.21404518329133   -1.53206596725367
H         0.06374799188799   -0.40505378586161   -2.16148509066071
H         1.02793482093692   -1.12388634901366    1.11468531652654
