39
 energy: -52.263483344349 gnorm: 0.112816888869 xtb: 6.4.1 (79825abcba525fcdf90b791dcacef51065a7a4e7)
C         4.19289670529777    1.55890841318694    3.72667785527692
C         3.79307398130886    1.95997194104026    2.30071103421625
N         4.86415905016757    1.68693579518587    1.35821127992114
C         4.83349617897871    1.28478805643413    0.04853972128194
N         5.89828408774451    1.17370701107345   -0.68912149912459
C         5.47742005456727    0.71772736959130   -2.01265902464820
C         3.99780656597934    0.36131645643723   -1.98806767596643
C         3.51964267319383    1.09475141894124   -0.73417754751253
C         2.96995941150612    2.49298990778049   -1.14198075905203
N         2.48470281485880    3.44489619198549   -0.12159741359197
C         3.46900192688021    3.98109011774933    0.81227693791382
C         3.31201989198759    3.43949766104205    2.26176254702738
N         4.04266179060001    4.37515044620798    3.14990747953154
N         2.58291430622544    0.23970566116073    0.00735713573406
C         1.30594241263724   -0.06932431870369   -0.37676764654760
C         0.58361036127081    0.58896556366904   -1.52564678539840
N         0.77632067981603   -1.12941058086698    0.13555542959446
H         3.59222353878254    2.04344271731680    4.50105263539216
H         5.19304408316181    1.95729017702752    3.92063096926430
H         4.23637298613032    0.51562728212440    4.05453794346059
H         2.99037653241989    1.29919473235132    1.96457491893744
H         5.82097097184202    1.75649382384875    1.69977003855583
H         6.13467213616401   -0.11227006788393   -2.29891097256132
H         5.71017660049836    1.58612804340378   -2.63293650500290
H         3.84912833065142   -0.70504009682885   -1.77989525420427
H         3.55882384557826    0.64067934623928   -2.95434234170698
H         2.31264206659704    2.23842189516320   -1.98099559667948
H         3.82921515223294    3.03851821804455   -1.55230394883969
H         1.73672750435649    3.02547009686190    0.42820147186653
H         3.17887173948445    5.02583950146653    0.98826802990172
H         4.50731806662697    3.86456794744171    0.47647471771549
H         2.22483753187054    3.45021460685820    2.41879740696233
H         4.94354221989477    4.63566823735102    2.74134586013508
H         4.03446555053535    4.11709570141448    4.13465408324000
H         3.01609081591922   -0.41925107148496    0.64644222724001
H         1.11290287984969    0.35465620063599   -2.44548806383875
H         0.33684169120032    1.65023651068269   -1.42909701238194
H        -0.38344440265825    0.09727447700982   -1.67211667085405
H         1.47401582483449   -1.62149170187933    0.69600394976089
