39
 energy: -52.261559300205 gnorm: 0.116848376327 xtb: 6.4.1 (79825abcba525fcdf90b791dcacef51065a7a4e7)
C         3.70970866916404    1.73408268809507    3.87947791281781
C         3.65318940436417    2.02529117923655    2.37412255520041
N         4.59021567098493    1.15273338153376    1.68804496955871
C         4.72680868292105    1.20570050484438    0.32553277776435
N         5.89564757323003    1.09114417460339   -0.23209511880646
C         5.67285275780970    0.86090301239479   -1.65833038196062
C         4.17435859518521    0.87668154524489   -1.92508086832638
C         3.49303045147631    1.21307746497017   -0.59788919477038
C         2.83779331024359    2.61380718013634   -0.77718381875673
N         2.10062432446463    3.31847070992881    0.29184045309469
C         2.75024311623908    4.18473827686101    1.26961644482489
C         3.88156860503460    3.54411617090079    2.12324413568633
N         5.18305033489978    3.99480276604799    1.57450736424636
N         2.50010210807600    0.22292051438503   -0.15957484827909
C         1.32658636940023   -0.28172766658257   -0.65140774130478
C         0.84186135016870    0.28622460773579   -1.96194362372855
N         0.66081558041423   -1.18229546582851   -0.00915866655215
H         3.04364633995375    2.33092439162850    4.50826961541431
H         4.70768436355346    2.00414286140776    4.23687494579454
H         3.46765151519035    0.68050331656014    4.05034861011962
H         2.63599277478155    1.90329436282046    1.99416860309109
H         5.49219177735231    1.26814225399488    2.14642218519410
H         6.11239162449897   -0.05208316999960   -2.07794691534413
H         6.12031223903463    1.71622003984312   -2.16945882671215
H         3.88215935614753   -0.13017749680827   -2.24665783314610
H         3.81575146283715    1.57965630947672   -2.68774959626232
H         2.15024687157286    2.55933181490401   -1.62872899653876
H         3.62376001529047    3.32031380214001   -1.07280420176709
H         1.47600608214073    2.69361128357855    0.79885808075408
H         2.13327978790011    4.55031283369292    2.10169886512247
H         3.28941070627375    4.98208518160659    0.74238103345365
H         3.80054647792024    3.99405822547124    3.12210741599474
H         5.35564226125038    3.42841920278506    0.74036148237323
H         5.89781253191266    3.89879267057626    2.29303528202639
H         3.05882790136892   -0.39956233380580    0.41543490576461
H         1.72226431953580    0.33839174007264   -2.59702521545234
H         0.58671324196080    1.33633554042123   -1.79259447471114
H        -0.00953383727231   -0.28948617670760   -2.33889427509606
H         1.22328614221841   -1.65515538725449    0.70010520979133
