39
 energy: -52.259044778655 gnorm: 0.123121054746 xtb: 6.4.1 (79825abcba525fcdf90b791dcacef51065a7a4e7)
C         3.60785694616941    1.59344072517943    3.78660706344313
C         3.59427840000439    2.06623335419625    2.32702688813150
N         4.69436136594652    1.51515851315683    1.55487941215193
C         4.78887004930382    1.31905590187846    0.20191434892503
N         5.90674729496065    1.07792699420261   -0.41652211684561
C         5.71542024447986    0.98661101405786   -1.86284534808221
C         4.23297615115948    0.65889749363321   -1.97171632946703
C         3.54493719920002    1.11743401533474   -0.68518819725796
C         2.98021374896828    2.52199241214833   -1.04827101146907
N         2.32094318019370    3.21412565604954    0.07827041850559
C         2.99513904044423    4.19423039686625    0.92285587746833
C         3.59133826351129    3.62002677241617    2.23959842911887
N         4.98712502045971    4.11520937083948    2.30785282950713
N         2.61431084185346    0.13144658708972   -0.11932577341379
C         1.35126029221844   -0.23157447272057   -0.50224556077745
C         0.59202359602646    0.45470113047782   -1.61022473206841
N         0.72921826336704   -1.12333505965960    0.19387493110765
H         2.61581444974883    1.88554556170580    4.14123996996664
H         4.37681587887444    1.99874926414494    4.45072133181765
H         3.68935553120489    0.50785784069432    3.89923799452995
H         2.65574117514882    1.71125246742155    1.89450678041459
H         5.54745769281642    1.17624210762549    1.99573321882030
H         6.35294286963918    0.24567454444862   -2.36023278801796
H         5.87996648713657    1.97843794004870   -2.28974506727300
H         4.14073802615123   -0.43380534608142   -1.96465230492383
H         3.80317729545232    0.93822451149434   -2.94212115850434
H         2.19366678201081    2.19140578668883   -1.73592879012044
H         3.77948957731401    3.03104587553303   -1.60172326024737
H         1.79276582487705    2.54660611233863    0.63783316318430
H         2.38494425976303    5.10056408128350    1.03630734494083
H         3.88299584788170    4.51051396838382    0.36061398485750
H         3.13591865474192    4.05698653427194    3.13870878113224
H         5.49711592542915    3.58426424327205    1.59765270712340
H         5.37063843909409    4.00108871599549    3.24395070789069
H         3.08713284742613   -0.39440839809430    0.60883045178680
H         1.24304375828184    0.45585814895377   -2.48047230159019
H         0.27276525539267    1.44565142312969   -1.27465911300664
H        -0.31097061443035   -0.14523574448327   -1.76216441799670
H         1.28737156864428   -1.61421568188769    0.89425053298174
