39
 energy: -52.261482054324 gnorm: 0.136193927962 xtb: 6.4.1 (79825abcba525fcdf90b791dcacef51065a7a4e7)
C         4.27336240440595    1.49148823685518    3.52656436139855
C         3.83777838508355    2.02202461720488    2.15438023987746
N         4.93243409382437    1.92256994752521    1.20468796754240
C         4.83645114586476    1.28987744633085   -0.00708349960262
N         5.89552969278312    0.70375633430583   -0.48150002237750
C         5.57708458871708    0.06169376925563   -1.75552667839619
C         4.18379801319601    0.58450357945002   -2.07538905834665
C         3.54221378056685    1.21910050514362   -0.84069704247583
C         3.09432190254123    2.68424872395283   -1.11684838263121
N         2.30216177465738    3.22928772357692    0.00484522047862
C         2.99949357196735    4.14718015768528    0.89908893311898
C         3.30135227773480    3.47829277846183    2.27038221727187
N         4.20779814989588    4.31884415301344    3.08886521035235
N         2.59048966885996    0.38429379689899   -0.09520666936972
C         1.30608908421625    0.02236852695593   -0.40022107821998
C         0.47758575319327    0.79768836966995   -1.39394829380892
N         0.80035585453506   -1.00302685019986    0.19940813115806
H         3.43815272961448    1.63295356603489    4.21768693330605
H         5.12872336288655    1.94671592384203    4.03425127320125
H         4.53100710274022    0.45921483191631    3.26995419028199
H         2.95750401114967    1.43788170478836    1.87539764891438
H         5.80208778081481    1.72180415797269    1.69497902892934
H         5.64948966532216   -1.02461968875755   -1.62325124606018
H         6.37524778087352    0.48248764444906   -2.37108132130399
H         3.55332936288353   -0.28272782339310   -2.30555473713364
H         4.24601387857464    1.17417594512795   -2.99888884404901
H         2.44827474221404    2.55854017206605   -1.99299750828341
H         3.90459094787429    3.40469460333221   -1.28628414546567
H         1.77978189387365    2.47642663102393    0.44979866057268
H         2.36596255694724    5.03969886799543    0.99235449779349
H         3.91729747164645    4.47030802580516    0.39148147056937
H         2.38031886196251    3.26450560100511    2.82960737537084
H         5.13037441178226    4.40106307372475    2.65473302463554
H         4.20946837010839    3.88858681727301    4.01150335220218
H         3.14010524879450   -0.38574676670767    0.27256481547613
H         1.08353540295001    1.00584855496473   -2.27181717955900
H         0.08729819281868    1.74894792759663   -1.02072781815135
H        -0.30262577841854    0.12496759552048   -1.76425247987131
H         1.38078707297235   -1.44755174568752    0.91251548492867
