39
 energy: -52.273667455739 gnorm: 0.108339869241 xtb: 6.4.1 (79825abcba525fcdf90b791dcacef51065a7a4e7)
C         3.72775816407529    1.54142227603059    3.75125979576146
C         3.69885416301808    2.04325019591504    2.30163058550520
N         4.80705207792246    1.56412434162720    1.49390937003722
C         4.69759457509138    1.38423429598614    0.13981881278892
N         5.78755442748278    1.17864474355545   -0.53839709876189
C         5.58949049571689    0.68468831380639   -1.89985707307605
C         4.07351469018590    0.56107154362996   -1.95838719467591
C         3.42916227300473    1.15414155983366   -0.70463846236026
C         2.85107117579459    2.55003934199202   -1.07987978098653
N         2.44385098619296    3.50900123173751   -0.03233717718338
C         3.52659896394751    4.03830845113044    0.78983108385501
C         3.62301845624375    3.59747926249249    2.27823532428467
N         4.74939868234328    4.33318053224813    2.90120913286052
N         2.52031105137138    0.23145745415643   -0.01103885712965
C         1.30879198935217   -0.22466918590825   -0.45587433122096
C         0.70993883303791    0.13312432547020   -1.79318174439900
N         0.48618693968170   -0.93858084180505    0.23724041273945
H         3.11144978926859    2.24277051782610    4.32004154730036
H         4.71627100200270    1.63189516370862    4.21090927537175
H         3.48922266619411    0.48155638940970    3.88393634477698
H         2.83312426852008    1.60317547324692    1.80084800245606
H         5.79493823339822    1.67615435708553    1.71418188610313
H         6.17340823235076   -0.22724293587156   -2.07374694128417
H         5.92473888536732    1.42350766758693   -2.63115315814865
H         3.79704729806828   -0.50008980325840   -1.96610990711469
H         3.65892548436932    1.01990792954075   -2.86504100759653
H         1.94122003447106    2.40927047321581   -1.67416244353119
H         3.65662391342974    2.96613331795967   -1.69813318127807
H         1.64487666048820    3.18103374381471    0.50779380325896
H         3.61003228005886    5.12915666139120    0.69114611151361
H         4.44064486780820    3.70239751168470    0.28374326429604
H         2.69085996749837    3.85938419943112    2.79710586742791
H         5.67151787606810    4.20347006250068    2.47783099247055
H         4.90506937530067    4.01389108107217    3.85525639873960
H         2.96418911340906   -0.22517077162792    0.77937782417736
H         1.49963286417889    0.14232585513427   -2.53981290564035
H         0.20675602286527    1.10346022419307   -1.83522882671906
H        -0.07153095212048   -0.61413168669250   -1.96441811759828
H         0.89978139313086   -1.24554870534000    1.11913340134590
