39
 energy: -52.259211399713 gnorm: 0.130789925639 xtb: 6.4.1 (79825abcba525fcdf90b791dcacef51065a7a4e7)
C         3.53049404453289    1.38084650614958    3.68915922038715
C         3.69034978075212    1.97742507058194    2.28465516111641
N         4.72460590721318    1.38146335813675    1.45687403465295
C         4.77926814408050    1.17377930252660    0.10344064370785
N         5.92448947236347    1.10993034832812   -0.50864412241479
C         5.60768437285652    0.77676272530949   -1.89624255392851
C         4.14156815764013    0.36892140423196   -1.92877317616581
C         3.50630512320720    1.12966893274459   -0.76407919973485
C         3.06910673926209    2.57169992081075   -1.15514208344068
N         2.39036886347366    3.36050887840730   -0.10639186875865
C         3.12800225484793    4.15104006282565    0.87311176129203
C         3.61498472108527    3.53021958381281    2.21341181368093
N         4.84447515771731    4.26218984375333    2.60155857132181
N         2.57688033541458    0.34725835398729    0.06202018546315
C         1.34516855601184   -0.10751592017106   -0.32498760005365
C         0.73210951148137    0.43112715914328   -1.59347278403125
N         0.69280782942275   -0.87430213044356    0.48323351412185
H         2.68057701379760    1.83465464339819    4.20581892560030
H         4.44622593369759    1.52636843728970    4.26957207559245
H         3.49976113784950    0.29862680217558    3.52892831783897
H         2.72568573400106    1.81649299886652    1.79735511845034
H         5.66438357354641    1.34721059862462    1.84755859972555
H         6.30372093376378    0.01144074277736   -2.26042875330173
H         5.73229358769130    1.66892354658464   -2.51394887758461
H         4.03391672501172   -0.70360042515042   -1.72711663531574
H         3.68854991347451    0.58500195993216   -2.90474440628585
H         2.42140898108156    2.57545511206325   -2.03904838787913
H         3.90825658593763    3.17493405230618   -1.52422578411811
H         1.62654216084357    2.78864568797642    0.25026676000871
H         2.46504975538022    5.01676962361626    1.00598748347316
H         4.03088599919983    4.44900494040827    0.32497052144717
H         2.81548328424269    3.79416787225007    2.91901015539104
H         5.65969601760547    4.16630874327634    1.99114934924528
H         5.01165907298804    4.30594633573796    3.60481337568610
H         3.17074889205332   -0.09269501252913    0.75776208325693
H         1.47686132068140    0.55168965145408   -2.37575716271561
H         0.14333590857132    1.35042541005411   -1.52455961486078
H        -0.06342937028554   -0.19466264668897   -2.01050212231482
H         1.13162783982633   -1.03802998621038    1.39078795914110
