39
 energy: -52.268694647703 gnorm: 0.097190269809 xtb: 6.4.1 (79825abcba525fcdf90b791dcacef51065a7a4e7)
C         3.72023915195433    1.74119747617231    3.69803300727098
C         3.53772044973216    2.12213033341361    2.22301821534077
N         4.63844842103670    1.53800803372050    1.47650845495779
C         4.76584384591936    1.06638166265169    0.19617975592872
N         5.91726103719647    0.67346866851733   -0.26220238909901
C         5.77320914489131    0.53480607464421   -1.71024150515036
C         4.28519588601161    0.45234740799657   -2.01992948510288
C         3.57983200276682    1.01838974928555   -0.78669559237623
C         3.12643294308223    2.47380837125198   -1.10246753206391
N         2.40366246020955    3.31781981743093   -0.12879962090131
C         3.09436523601520    4.26092825608315    0.74409562174452
C         3.50461790551905    3.67495080989145    2.12514502115199
N         4.75480756062812    4.29082782089317    2.63091816190899
N         2.54787014572886    0.17900803646226   -0.16305307586006
C         1.26160403301105   -0.17514842177579   -0.46932296765105
C         0.41923648807552    0.74563564970179   -1.31643927028851
N         0.76574296529722   -1.21180088612980    0.11909052883198
H         3.24935404238064    2.42985454291908    4.40461400514554
H         4.80219431418174    1.81489980829899    3.84142622781585
H         3.40767691480719    0.72885728630912    3.97242348976859
H         2.64049988574454    1.61696855992553    1.85730789011474
H         5.55275520107289    1.49642054451071    1.92294249616432
H         6.36728092196151   -0.25574635678908   -2.18450070989197
H         6.27841829214104    1.42783403066940   -2.08481362952476
H         3.99671295986920   -0.60149793660321   -2.11344342033533
H         4.05284235223500    0.95868254145210   -2.96548368514062
H         2.47844849084482    2.38617798486941   -1.98181611028175
H         4.01059849233656    3.05163193041639   -1.40022227731365
H         1.70413009936967    2.76789026812285    0.36707948725313
H         2.52495679661959    5.16945505187675    0.98284810395053
H         4.02667540541257    4.61497818029113    0.28596097970556
H         2.73270269978001    3.99473491506318    2.83832474898285
H         5.45632229713921    4.24718017199414    1.88771588697009
H         5.00921411131205    3.79618503698594    3.48355590896267
H         2.87585771607386   -0.45638422729097    0.55736099883870
H         0.72338233916672    0.72341537969438   -2.35958881955633
H         0.64063550626863    1.72957870189042   -0.89294050210960
H        -0.65977245686694    0.57115494138584   -1.25557351373339
H         1.37342684412262   -1.77462630490078    0.71656247949209
