39
 energy: -52.267351155839 gnorm: 0.110621588916 xtb: 6.4.1 (79825abcba525fcdf90b791dcacef51065a7a4e7)
C         3.73243138422316    1.82810659657266    3.92605824602428
C         3.68399959220590    2.10376183569027    2.41749598447285
N         4.60387416546364    1.16365329741347    1.80096985216945
C         4.67753637685135    1.06961239000799    0.43582048539205
N         5.84445914823196    1.08806795328074   -0.13707305268237
C         5.66956128778363    0.98526282400366   -1.58470470057266
C         4.22911598417630    0.54279311561456   -1.79971034960573
C         3.50605202516050    1.08354629083243   -0.56537955725974
C         3.11592339817601    2.54815799484459   -0.92067972460625
N         2.17697534481619    3.22241610995351   -0.00060676780886
C         2.73526818228202    4.01596053018467    1.08891896214095
C         3.92990394159598    3.57784072442220    1.98327386575842
N         5.25282240296031    4.00883015986784    1.47119967685656
N         2.43573868109135    0.21623283664730   -0.05485663191651
C         1.28058068947521   -0.18101162788143   -0.67252597717045
C         0.58570072736836    0.76937923509266   -1.61535760208208
N         0.66600415800448   -1.27042921925145   -0.35280426517605
H         3.01746781055584    2.44456628084468    4.47745882020573
H         4.72140902882449    2.06547711259547    4.32879770858993
H         3.56133787592296    0.79088775812855    4.23056118377366
H         2.70316835110810    1.87034374995795    1.99627955702174
H         5.45841460059895    1.06805661582050    2.34650782163268
H         6.29672172030956    0.18795277373400   -2.00157722038599
H         5.96763474645592    1.91845068047766   -2.06777004321036
H         4.14100535391637   -0.54707940261273   -1.71621375566432
H         3.86289154742205    0.97943709108263   -2.73761113453037
H         2.68664656888746    2.56047550254686   -1.92883970058772
H         4.07475097185431    3.07121400138563   -1.02721034479190
H         1.45061998463447    2.61750011060241    0.37906235996581
H         1.84699947378555    4.38042927560144    1.62257698845041
H         3.13480757239177    4.91674002741834    0.60579834943928
H         3.74211149203424    4.09981205406982    2.93144062957757
H         5.53979937033402    3.47627918129019    0.64632917974259
H         5.83951685453119    3.83206374014007    2.28417480387926
H         2.83082971856362   -0.51147887568198    0.53219903485653
H         0.49887398093792    1.76009269561766   -1.17705704552414
H        -0.46707766637495    0.47905255196852   -1.67765313406660
H         1.11168057246657    0.73115267211664   -2.57467631779924
H         1.15896075527727   -1.78331474887843    0.37997613195186
