39
 energy: -52.271785213338 gnorm: 0.103947921960 xtb: 6.4.1 (79825abcba525fcdf90b791dcacef51065a7a4e7)
C         3.90742237082875    1.62112779623713    3.74791426042060
C         3.59730091769782    2.13539606030622    2.33602035825252
N         4.59167701950534    1.56924205564106    1.44116642219608
C         4.64567967131953    1.28846944768998    0.10096006853316
N         5.82266579303607    1.18488645714015   -0.44147021029619
C         5.71138170174784    0.67702299915069   -1.80766423062771
C         4.22268159969607    0.42497115873503   -2.00035934243415
C         3.44728414217746    1.04412352927475   -0.83665100193691
C         2.85449525014384    2.45051925587312   -1.14353599413241
N         2.49547879389785    3.30327853097408    0.00828452575490
C         3.53144597164819    4.01187050015205    0.75201794292866
C         3.56481972434473    3.69004622116797    2.27329688075946
N         4.75767195910086    4.28351664817328    2.92366719168560
N         2.55682541867908    0.12351659360373   -0.11692669084038
C         1.25960778231913   -0.15542682447131   -0.45326810728137
C         0.70401268070374    0.10835869764601   -1.83049855643632
N         0.34951136180690   -0.52652906013285    0.38384874158508
H         3.40206292659532    2.20268984104429    4.52356590148518
H         4.97762478774218    1.51565051710361    3.94831872505505
H         3.49158844123739    0.60950987788934    3.78702030566172
H         2.60850898522605    1.73577266394701    2.09826238226108
H         5.54228802180412    1.81675609199032    1.70961621591500
H         6.36127145250141   -0.17967164802085   -2.02338119377942
H         6.02711920522833    1.50125389885554   -2.45108690657668
H         4.05595490608336   -0.65885026610308   -2.00987732187563
H         3.89854958987238    0.77104924603173   -2.99010909604520
H         1.93811663962936    2.28394470729156   -1.72087473640972
H         3.55854379808806    3.10904704750439   -1.66788651110101
H         1.65911342289936    3.07461129438561    0.54295113513886
H         3.47678418471492    5.10539402891762    0.66331596594354
H         4.47553893349890    3.72280226056853    0.27288436238658
H         2.67768623053761    4.04500533726269    2.81527333332528
H         5.57795883865943    4.00528876978974    2.37951983220128
H         4.89712911268248    3.83819473027832    3.82844638955961
H         2.81264159919648   -0.13739519961280    0.83005732605297
H         1.39383181496228   -0.07830956552567   -2.64931718241630
H         0.39915857542017    1.15872390931669   -1.81290424749761
H        -0.23937772902084   -0.41465411174330   -2.01726204467367
H         0.70732981782258   -0.75961877020454    1.31156638381891
