39
 energy: -52.268353949247 gnorm: 0.101419367741 xtb: 6.4.1 (79825abcba525fcdf90b791dcacef51065a7a4e7)
C         3.86608258941822    1.61891308364634    3.78018520807582
C         3.75412161756432    2.11576348128425    2.33287874875505
N         4.83937148017259    1.58066608923827    1.52914913358844
C         4.71734095882354    1.27554942253217    0.19876761249905
N         5.79298834440517    1.10979727675683   -0.51240417239740
C         5.42523693112151    0.86580276850798   -1.90596835366709
C         3.94847823302433    0.49692196367737   -1.90547182660051
C         3.42124993485112    1.14547276262204   -0.62476101506914
C         2.94046406426776    2.58948648075769   -0.95216804393670
N         2.32144971799219    3.37625614473435    0.13438451270105
C         3.23564554416855    4.17349817706276    0.94501458333281
C         3.70540956593502    3.67123851668346    2.34001683675577
N         5.11096075701494    4.12134636819010    2.48113354650290
N         2.35452056708025    0.34470074719647   -0.00889610468248
C         1.28981624634305   -0.28254523839801   -0.59768788757005
C         0.84833051883747    0.05105996838433   -2.00083804064256
N         0.53549646850330   -1.11287095766809    0.04130965399627
H         2.89089056717058    1.71018361105270    4.26588909096707
H         4.62370378584253    2.20593186182640    4.30747990678187
H         4.19397568513831    0.57498871087746    3.75725105809697
H         2.89560452009024    1.62401237651987    1.86912616707615
H         5.73517560641477    1.54330606282734    2.01198342453791
H         6.00126528331902   -0.00101595059028   -2.25184820145945
H         5.72612243402642    1.78645498999602   -2.41085140163157
H         3.86203635807244   -0.59478883984794   -1.84844030773908
H         3.36503947738295    0.85463924818113   -2.76341923071918
H         2.09799512560661    2.52321265054562   -1.64978594438875
H         3.74236430327588    3.18551343249275   -1.40603428080431
H         1.64943101231428    2.87136893449681    0.70983554751160
H         2.78157624167930    5.14623421847121    1.17794231457752
H         4.17290500770811    4.28930464801958    0.38593094157205
H         3.04426634609428    4.09452729021861    3.10842854030008
H         5.78648498125871    3.40939000982561    2.19275387813191
H         5.37203193652759    4.23086091112710    3.45900557837553
H         2.34837995027926    0.15038167376876    0.98734583571081
H         1.63686943647281    0.00102447290911   -2.74707007443768
H         0.50777841892998    1.09040940112318   -2.01785817258360
H         0.05223391236997   -0.61894024940008   -2.34104146328185
H         0.76196108905462   -1.27106973471031    1.02452468999622
