39
 energy: -52.261209476660 gnorm: 0.133895077806 xtb: 6.4.1 (79825abcba525fcdf90b791dcacef51065a7a4e7)
C         3.64533277968578    1.69286199848296    3.74912138666076
C         3.64121257617092    2.11614994024902    2.27436653595143
N         4.63461294077536    1.41135466956083    1.48285085500859
C         4.63649221163473    1.30365362739565    0.11672511568749
N         5.76390671100778    1.06356658717102   -0.48456607977488
C         5.44876468004194    0.67775800353479   -1.85884144253638
C         3.93447546147327    0.56763838552207   -1.96696801557240
C         3.34981332973903    1.25057553127903   -0.72980391862481
C         2.90446087835069    2.70253025265078   -1.07187794835253
N         2.50822418676580    3.60596070324056    0.02793639757636
C         3.68733242592052    4.11263622945854    0.72180500088530
C         3.66143855161324    3.67105732463957    2.21288241288320
N         4.86660362182973    4.19526967192055    2.89907750473730
N         2.40534937557567    0.42328188107783    0.03309185882224
C         1.41432080005458   -0.32647910028047   -0.54086753751823
C         0.70936877004785    0.08862894918575   -1.80805353410637
N         0.95945974861144   -1.32123393642239    0.14493215005354
H         2.72508198183506    1.40586857209848    4.26488420075825
H         4.33638305129859    2.25272404663889    4.38600804940178
H         4.23560941009921    0.77286182882072    3.69443008729805
H         2.67251825415120    1.80501348485866    1.87591627248279
H         5.58850602355384    1.51628084174651    1.82353874506020
H         5.98397966078680   -0.25362869215429   -2.07992957430999
H         5.81007225840349    1.43351090877012   -2.55979355502627
H         3.53617448394358   -0.45408124265594   -1.96535777505918
H         3.50830364090158    1.03556170400966   -2.86355126383128
H         2.17107586707963    2.63642699964157   -1.88341576537303
H         3.74041145206846    3.19655225923805   -1.58316608940117
H         1.73759627255455    3.23845307652175    0.58357556400800
H         3.71392017477301    5.21069725167760    0.70749621693435
H         4.61372701052008    3.64269625511020    0.36769986301287
H         2.77633630893120    4.10051021546986    2.70166100521922
H         5.70216511424171    3.70104227672076    2.57665861830536
H         4.73811707248792    4.02825417948510    3.89506060499580
H         2.77553681553176    0.09284913704893    0.91856973090648
H         1.14387691385185    0.92453497099545   -2.34992363835483
H        -0.24663738582608    0.44239959396057   -1.41130269934402
H         0.44066814154824   -0.79448176425309   -2.39654643968038
H         1.26038034412195   -1.39002386137356    1.11845134446000
