39
 energy: -52.259094034932 gnorm: 0.125884428347 xtb: 6.4.1 (79825abcba525fcdf90b791dcacef51065a7a4e7)
C         3.75231631662914    1.50296474724451    3.80009014667392
C         3.65537966821583    1.87111650145404    2.31376611284557
N         4.78673983408236    1.32496124025456    1.58450869272085
C         4.74285379750344    1.22441880250799    0.21854095601791
N         5.82513919646214    1.33879862083150   -0.49267768165045
C         5.54062477415605    1.12424946471010   -1.91035738842734
C         4.18230717740746    0.43768229323134   -1.93245650892042
C         3.51665538576682    1.04755050541946   -0.69804310774079
C         2.94559449400244    2.44729347238659   -1.06970841160758
N         2.34114685938298    3.13967305883079    0.08702633983427
C         3.21383640053834    4.00866849045672    0.86915796500230
C         3.57474610357250    3.42450466809295    2.26467618310414
N         4.73090782654886    4.30381502118290    2.56164169908006
N         2.59189029047927    0.13410891157393   -0.01330160600654
C         1.34732199603373   -0.18965684370896   -0.48227289529197
C         0.80460356532216    0.33164098028980   -1.78945983938590
N         0.51272142845326   -0.78444373680017    0.30285602742642
H         4.46364936461507    2.17099837731190    4.29301449646732
H         4.04703553275798    0.44980053790995    3.77546586404301
H         2.74671692873667    1.72048283777967    4.17328407178646
H         2.74266874145410    1.47526700233340    1.86188211757122
H         5.64761070287745    1.82864032433579    1.78993143241281
H         6.39742523246998    0.52810984268137   -2.24699777033301
H         5.62245110213957    2.11552549246103   -2.36170623257034
H         4.37079422701328   -0.63458261108785   -1.80101118502737
H         3.63058262560750    0.61937022485471   -2.86359865352418
H         2.27020057102801    2.26792640905330   -1.91379807819414
H         3.75888561756305    3.05467936984381   -1.48675348903166
H         1.46891748838444    3.55095554097767   -0.24119123166259
H         2.87115177050263    5.04495366109037    0.99297214326099
H         4.14018842637537    4.06234900655026    0.28312786107123
H         2.87524685989820    3.75050451365757    3.04644673484742
H         5.61863494088345    3.99085854751833    2.16117137495074
H         4.73904826003217    4.31820223349052    3.57953759133988
H         3.02411113290052   -0.37623967318698    0.75025917902272
H         0.71264235278767    1.40961659030133   -1.89276103741668
H        -0.14310278682417   -0.20223887558668   -1.90494850543589
H         1.50619511362886    0.02400187325273   -2.57146747773062
H         0.94663910430291   -1.01937257920093    1.19703094051258
