39
 energy: -52.273407169135 gnorm: 0.105031076139 xtb: 6.4.1 (79825abcba525fcdf90b791dcacef51065a7a4e7)
C         3.78894687302556    1.38423323890873    3.65659108974227
C         3.60395277829620    1.92888560218177    2.23419081835487
N         4.76306972019842    1.54859778394442    1.44558011680553
C         4.89196355168607    1.28409854981042    0.10717467055342
N         6.03794564234727    1.14475637012410   -0.49079285465030
C         5.72941355558805    0.79256956415812   -1.87555563242640
C         4.25465746407219    0.42412624012741   -1.95450833012510
C         3.62748285418720    1.15006505783240   -0.76351175947732
C         3.03931646447884    2.54084202958911   -1.14209558745038
N         2.20422892848420    3.10436564674709   -0.06142373170475
C         2.97888702343034    3.97285099748798    0.81841034736137
C         3.38600528192298    3.46980188718569    2.23268422084855
N         4.50995733942382    4.26880049488865    2.77712718086010
N         2.69184233129889    0.28341693335710   -0.03417316611456
C         1.38556998369704   -0.00657625656552   -0.32273003780937
C         0.70939695830103    0.52855702123742   -1.56024966821458
N         0.66131474611248   -0.79099046449827    0.40315265095020
H         2.92510034441221    1.66157728355877    4.26658084593805
H         4.60925009852882    1.85861341726774    4.20311344239743
H         4.00119141759380    0.31114463889114    3.62122078200961
H         2.72695382294559    1.62472185064221    1.65774095437565
H         5.70994968212465    1.67826967862743    1.79713849674108
H         6.34973447655480   -0.07592815455974   -2.12800342724375
H         6.08782883712150    1.58800719992757   -2.53271386347114
H         4.16173215217560   -0.60881294950266   -1.59819555480957
H         3.71140790646695    0.66465705082626   -2.87725478936511
H         2.33278083260507    2.40018625531447   -1.96783175340684
H         3.83675244124273    3.18736961863722   -1.52989013401241
H         1.47632395149272    3.63120814714505   -0.54127314225873
H         2.38904957812903    4.89198141677353    0.93648118035974
H         3.94690960601547    4.20498293863990    0.35636273297132
H         2.61593822773412    3.63284293257718    2.99894438236984
H         5.35429304898832    4.01441178582835    2.25870528760317
H         4.63626844120118    3.96213798749974    3.73961817663467
H         3.12896297544053   -0.32721864360864    0.64872165882807
H         1.40963587040843    0.36474318897867   -2.37510543443756
H         0.43054531530556    1.57994889021008   -1.44479597573153
H        -0.18282791455597   -0.09282773279462   -1.68762404679828
H         1.16205232294963   -1.07720098878772    1.24598733218813
