39
 energy: -52.266680360659 gnorm: 0.119644183339 xtb: 6.4.1 (79825abcba525fcdf90b791dcacef51065a7a4e7)
C         3.49975557375527    1.73557426298904    3.76326620826529
C         3.65693416405357    2.02247283272284    2.26424130433138
N         4.72751623522959    1.22956971850510    1.68524522512618
C         4.78415403686015    1.08635800308334    0.32356053669078
N         5.94038400181481    0.90417213590437   -0.24229894096591
C         5.68619408019205    0.71549939206309   -1.66938885576299
C         4.18619531061973    0.54715208484688   -1.86573653570210
C         3.56799427293699    1.18007664139205   -0.61832242914435
C         3.16855733321153    2.66891443347900   -0.83589572444043
N         2.18952449888928    3.28015909393593    0.08641461836637
C         2.67997316044849    4.13984331626591    1.15826960446269
C         3.83180325563632    3.54957882485035    2.02073672424274
N         5.22466872362266    3.84524129797273    1.60770569634840
N         2.53053139740678    0.31105495416979   -0.04656285071659
C         1.27987856054329   -0.01493675909406   -0.49745689757353
C         0.62559281464730    0.66398882097691   -1.67474302784214
N         0.60165609673186   -0.89225119328876    0.16367141792488
H         2.66951963937167    2.35071189008732    4.12041049940600
H         4.43159504751548    1.99464426928601    4.27432251500836
H         3.25160540831451    0.66998738906050    3.79090790587618
H         2.71146306546193    1.78132734043852    1.77243802971511
H         5.66223830958618    1.42654573481006    2.03806934819554
H         6.24354481268406   -0.15820177511940   -2.02830758122255
H         6.11112764218362    1.51940455996358   -2.27453961017301
H         3.92943033437385   -0.51880125154591   -1.88503661629577
H         3.92532776553062    0.92702835771060   -2.86176781583749
H         2.67166790932939    2.63218967840014   -1.81189216581724
H         4.07238555001782    3.29041302703062   -0.86937283595664
H         1.68421269662362    2.49739812295886    0.49825120305655
H         1.83063114612182    4.34562544712486    1.82379309501204
H         2.96689847407839    5.04776477045958    0.61256505963424
H         3.87365363589504    4.03612070244588    3.00474172063722
H         5.41996486113556    3.49670995378666    0.66602476067704
H         5.92258256453763    3.66592159925993    2.32683434917861
H         2.80954007502912   -0.32668037715326    0.69218163041283
H         0.40337308539013   -0.15114844610510   -2.35835772309007
H         1.42458203196040    1.17435259143875   -2.22032318950078
H        -0.19488681235589    1.28433491740925   -1.30005333464661
H         1.07489955660227   -1.30327188215147    0.96997626314721
