39
 energy: -52.270018300994 gnorm: 0.118804878599 xtb: 6.4.1 (79825abcba525fcdf90b791dcacef51065a7a4e7)
C         3.71743779945908    1.94523676366704    3.91006858124801
C         3.60196176287715    2.04145696296054    2.38314402527168
N         4.63723918068255    1.25499255479853    1.73526105889240
C         4.77646421991366    1.18581166099720    0.37374231559205
N         5.95492633176475    0.94317192886567   -0.11881182736617
C         5.81837108988235    0.61424875129419   -1.53654164242911
C         4.32664093060590    0.48229825659481   -1.80897482893099
C         3.60714544707148    1.13692722244798   -0.62889201619958
C         3.09357290148785    2.58348313607518   -0.88820956054972
N         2.08779006756070    3.13227358373573    0.04453466782118
C         2.64205171065251    4.03371875017884    1.04885567755743
C         3.76971891163836    3.54035121404491    1.99960775778098
N         5.08929083407350    3.85201272350352    1.39987261426903
N         2.49993749845552    0.35111133262198   -0.06762445560813
C         1.27256438625940    0.00301425381102   -0.56370158867315
C         0.60498919409704    0.87025301776316   -1.60161916835731
N         0.61759621476645   -1.05276425606458   -0.21283756005074
H         2.79547447280748    2.22812148283565    4.42504229724455
H         4.57079506798083    2.50203828965648    4.30803098062860
H         3.92133768129569    0.91022358703139    4.20159993628645
H         2.62355641171453    1.69674567804663    2.03987392221108
H         5.51560017142386    1.22506327991850    2.24963062646335
H         6.43469388106361   -0.28345885952357   -1.66724557707452
H         6.27456215032466    1.39058287363529   -2.15479286165313
H         3.93516918754261   -0.54154732190867   -1.84133897975075
H         4.24188719900508    0.82683413617124   -2.84750653358159
H         2.61061338566677    2.63469705393056   -1.87052528624202
H         3.94116741495586    3.28016587138749   -0.86577142542338
H         1.46367378929548    2.38338779428608    0.34002258437987
H         1.89187258046873    4.18352614639773    1.83716951261678
H         2.77572202557906    5.02452382339527    0.59622057202979
H         3.77094803732205    4.25619006511128    2.83286255225895
H         5.28642116108732    3.29940395182854    0.56193415958381
H         5.91079639816590    3.71250997057496    1.98472550572922
H         2.85020463985370   -0.33386823619324    0.59450215241416
H         1.28771325296612    0.91042288102594   -2.44626921532323
H         0.30912056804584    1.86534682224756   -1.25699941113995
H        -0.28372037473575    0.29522387525410   -1.88080600221211
H         1.12218378064564   -1.52062395482209    0.54183031470134
