39
 energy: -52.269649576144 gnorm: 0.109674287433 xtb: 6.4.1 (79825abcba525fcdf90b791dcacef51065a7a4e7)
C         3.93232132069194    1.42328483147219    3.66747920269636
C         3.68198964204542    2.04822640925074    2.28875747133286
N         4.78104543499459    1.59832618557073    1.45225050913809
C         4.79126183153905    1.31394709936236    0.11175553806014
N         5.87399807575979    0.98997084904573   -0.53087808848666
C         5.51896472418614    0.58206826188571   -1.88895111500262
C         4.01715972740619    0.33731081011350   -1.84938993745118
C         3.48347981287211    1.18407803849530   -0.69311184729268
C         3.04409098634306    2.57020782019139   -1.24908639808854
N         2.47999881312948    3.47517051270745   -0.22652869357703
C         3.32864154126968    4.12242092590596    0.76812822332411
C         3.40587262210193    3.57838289730633    2.22313071230184
N         4.43568530077413    4.43743745076432    2.85526697479378
N         2.55442435259109    0.37596881484055    0.10829466752896
C         1.34906387392712   -0.08186209371072   -0.35127640536433
C         0.64438388221063    0.52959080345513   -1.53642783152049
N         0.78948601517874   -1.14495109919853    0.12145119036215
H         3.25511283468594    1.81044653984565    4.43346387742339
H         4.93083269192270    1.79030626030893    3.92221619204734
H         4.00704479678137    0.33248533920681    3.61858323722562
H         2.77368992580089    1.69507771344789    1.79457650420472
H         5.66082982287481    1.42113114672449    1.93346886273658
H         6.15055936662344   -0.27348428807561   -2.15715674848394
H         5.81985555334437    1.37373381842726   -2.57871183130910
H         3.69863981169858   -0.67156432544017   -1.56081880325305
H         3.58835795055081    0.69264539480833   -2.79506565266049
H         2.29775343940143    2.41665355428147   -2.03662573795453
H         3.89786275205522    3.13401020422145   -1.64593311697708
H         1.78384228592003    2.95248719370040    0.30246314640494
H         3.20349294419189    5.21339062097306    0.79592403281107
H         4.36461547269644    3.99970559684255    0.42733515486120
H         2.49032877013616    3.68103339268983    2.82144719071993
H         5.30233948670899    3.94453811066117    2.62649104173834
H         4.27889770306070    4.47539145157614    3.86043484463618
H         2.98383038486337   -0.32381237056164    0.70512996574111
H         1.22699943197346    0.27818481609232   -2.41876199615675
H         0.54349696975848    1.61851350594688   -1.51230650714325
H        -0.32031215122386    0.02866265649994   -1.66620080220472
H         1.31532901328496   -1.53540276139132    0.90507197112969
