39
 energy: -52.269041316922 gnorm: 0.121712056149 xtb: 6.4.1 (79825abcba525fcdf90b791dcacef51065a7a4e7)
C         3.64141263466919    1.46074604288721    3.66062116037507
C         3.65964030892381    1.98647314620491    2.21931262278773
N         4.75557890730488    1.41852630899207    1.45352367110928
C         4.77229223962355    1.19187054487456    0.10213533756754
N         5.91405368578919    1.00523754389582   -0.49099641980166
C         5.65396162218301    0.66099731554451   -1.88765182758516
C         4.15826982639023    0.39265356196919   -1.97589704682052
C         3.52090018838398    1.12599054137074   -0.79488697285272
C         2.95743988295562    2.53174560989134   -1.15529111148911
N         2.47609867774364    3.47990820135176   -0.12958158810076
C         3.39901897616001    4.15940542683547    0.77317618179710
C         3.58418359084788    3.54058143466343    2.18800662500181
N         4.66827273095128    4.30671488169724    2.84821523059985
N         2.62167218053385    0.26051311376061   -0.01979036094874
C         1.35175113177641   -0.14433686469998   -0.33140807316650
C         0.58931375009431    0.59841109173264   -1.40007413391166
N         0.60181810025094   -0.91903676113121    0.37866058526352
H         2.82868656028323    1.92088015555062    4.22894410700036
H         4.62686450943229    1.55309235963484    4.12642946397179
H         3.38433754475006    0.40134851126326    3.56363034462606
H         2.68465146216303    1.66047129068517    1.84910088312525
H         5.65992995934900    1.55891642750450    1.90009902070705
H         6.24973268546341   -0.25120112403073   -2.01321881323279
H         6.03896449634547    1.49366367212530   -2.48050848190044
H         3.99051194172063   -0.68922902146637   -1.91309075514798
H         3.79765136176096    0.77252657106111   -2.94030722855742
H         2.22338094302764    2.41309368271237   -1.96021100831991
H         3.68445656317330    3.14118926042040   -1.70693578536854
H         1.59287053519726    3.15827836526474    0.26300778142095
H         2.98901148305208    5.16757848201741    0.92193975655116
H         4.26957516138400    4.43329071859110    0.16361919615876
H         2.64097424166929    3.82652074598791    2.67312013267552
H         5.40516069431844    4.26480454896508    2.13996575544258
H         4.94741301153805    3.83796547887417    3.70771508710867
H         3.18740614699250   -0.35590972756169    0.55489527403311
H        -0.31569523832029    0.02108811965794   -1.56982790888172
H         1.22054076281860    0.53314517996843   -2.29103175533392
H         0.30794828443514    1.61719783893740   -1.11491539662115
H         1.13571656715735   -1.48443760990002    1.04070226984964
