39
 energy: -52.264810402739 gnorm: 0.125253521076 xtb: 6.4.1 (79825abcba525fcdf90b791dcacef51065a7a4e7)
C         3.82091680749270    1.66980534475556    3.75029709995068
C         3.60614087625724    1.98945027506725    2.26510688638575
N         4.73516262705060    1.52241309782941    1.47944543329937
C         4.76472374828829    1.16663522940581    0.15639938187116
N         5.90731757888282    1.03618420831412   -0.44999837022527
C         5.66880407284327    0.66410408960329   -1.84336237051594
C         4.19420957516864    0.29361411986729   -1.91545802916276
C         3.52670877946013    1.02581210730757   -0.75049589905161
C         3.18186618864794    2.45453834749417   -1.26367315507179
N         2.61057943399851    3.47140880957513   -0.35681726882739
C         3.54911686050032    3.97513649743818    0.64011596685768
C         3.45113026163985    3.53185572031448    2.12768950977663
N         4.36177983210349    4.24372312393739    3.05615453153778
N         2.54479861348790    0.25075683111642    0.01994465717465
C         1.24843178697064   -0.06638196379558   -0.28429960895859
C         0.45593568059371    0.66604886361209   -1.33811525486785
N         0.50279518908379   -0.96108544514519    0.27273602914151
H         3.08187955261206    2.11460094111217    4.42202536411426
H         4.82244357810797    2.02156957636987    4.01454447240512
H         3.82443742910302    0.57624476567369    3.79423816702953
H         2.69652039684959    1.53369509396223    1.86659089135078
H         5.56168766803852    1.32203217466962    2.03952899505041
H         6.32722088636257   -0.20275454540069   -1.97700228373456
H         5.99958878219576    1.48293418560678   -2.48612067426154
H         3.90319218066072   -0.76321064110983   -1.88403251732231
H         3.80770425290038    0.63057438770723   -2.88577117046782
H         2.51521034499684    2.41183057322254   -2.13232894544538
H         4.06852087119459    2.79328496016076   -1.81447337234856
H         1.68137475545021    3.25973870026202    0.00295842551241
H         3.38939117461318    5.06178633601360    0.62196397338455
H         4.54441118540088    3.80612860105435    0.20969002780573
H         2.43116710940883    3.76622527309935    2.46158525127108
H         4.67058927355296    5.13457667084425    2.65942496283330
H         5.22543982882336    3.70664937704570    3.10119346294859
H         2.92873259806162   -0.34161844064976    0.74931550610467
H        -0.60200266018982    0.41971233756678   -1.37338849832942
H         0.87598755913191    0.57737042643644   -2.34419935111811
H         0.65044987912583    1.72535020035880   -1.14201994667972
H         0.91960104979550   -1.68072994530365    0.86553409234976
