39
 energy: -52.271313702067 gnorm: 0.118038612874 xtb: 6.4.1 (79825abcba525fcdf90b791dcacef51065a7a4e7)
C         3.71383034363790    1.49636406520195    3.67553796492403
C         3.67213647488330    1.95958204874184    2.21342227704179
N         4.81292166022662    1.41451975199511    1.49816425566454
C         4.75650889989956    1.29440430023790    0.13423884941406
N         5.84815509095442    1.22249750264171   -0.56818152744076
C         5.61318363908418    0.75097578427700   -1.93172515783916
C         4.12230934781285    0.44571386861193   -1.90012529541332
C         3.46813454336162    1.11942694236720   -0.69307350734407
C         2.97035176704924    2.51494124562325   -1.17085814367681
N         2.66483184971997    3.53363556274672   -0.14533331137555
C         3.68515465597516    4.09172444964227    0.73554587332550
C         3.61673495348148    3.51444906881522    2.17812902923305
N         4.52803464757914    4.36604225876329    2.97963202347820
N         2.48545204851100    0.26903623253897   -0.00779421690165
C         1.19286602285856    0.00374573939367   -0.37186962331294
C         0.65883155414511    0.05746702042692   -1.78146305338667
N         0.47454866058828   -0.53390542599049    0.55641286704899
H         2.89315449872036    1.93617977164318    4.24850511286072
H         4.69343590156679    1.68257188662361    4.12533816514429
H         3.56599337975250    0.41273497238963    3.71689221523001
H         2.74290252352044    1.63674964462608    1.73777459883642
H         5.72248479107529    1.55226430254119    1.93486909251589
H         6.12360977770006   -0.20108105828355   -2.12111667787333
H         5.84713968283953    1.51548773385302   -2.67591971334868
H         3.90154197371221   -0.61601475801893   -1.73717940862841
H         3.60123745049545    0.74283347900455   -2.81916838493688
H         2.04573276184258    2.36611926279718   -1.73984722775340
H         3.64688413710338    3.02787137276734   -1.86619497768922
H         1.89811430158363    3.18675700311523    0.42867330554090
H         3.54944936276299    5.18075572539284    0.78292324914791
H         4.63667669935926    3.78217373013142    0.28474091570724
H         2.60888470931629    3.68651976563295    2.57983769428294
H         5.44787390383196    4.24859386945165    2.54779955040393
H         4.56184550956206    4.02096506870996    3.93679651483158
H         2.81410491539056   -0.38078295131326    0.69932524782301
H         1.48977125371371   -0.06276500269396   -2.47156659677221
H         0.04074521336303    0.93560570638144   -1.98968020229931
H        -0.01837277946315   -0.79032160142978   -1.92657408252402
H         0.97361822063183   -0.62210322914861    1.44307831057035
