39
 energy: -52.261469755537 gnorm: 0.117834000584 xtb: 6.4.1 (79825abcba525fcdf90b791dcacef51065a7a4e7)
C         3.69004304234760    1.56592104856910    3.80882663041028
C         3.60492743129559    2.01119248073735    2.34302301694434
N         4.62851198386666    1.37416383634448    1.53274717993151
C         4.73027860968391    1.29547047369990    0.16843287543482
N         5.84336001398001    1.21856353688591   -0.49894368582194
C         5.44012892748928    0.99922555957339   -1.88678052441682
C         4.02855754417756    0.43033702539723   -1.91364328333412
C         3.46322119727229    1.16878978643909   -0.69960444612027
C         3.02160740275114    2.62850901025061   -1.01221124544680
N         2.32369086685327    3.40893481131005    0.03020410813085
C         3.21203676490901    4.18761074102563    0.88634388786888
C         3.71656938691354    3.55824097887485    2.21612386898849
N         5.08230699674357    4.06669400226295    2.48874345991991
N         2.53692768117854    0.25149300456328   -0.02212098185743
C         1.30917088292560   -0.19737862241941   -0.42812103743120
C         0.90605006773970    0.14787290168029   -1.83997350877088
N         0.49963845832796   -0.94432012351335    0.24529755801910
H         2.94090542503680    2.06713232985036    4.42754961307098
H         4.70894496047604    1.47921438242830    4.19733847390627
H         3.39372144970514    0.51282082127291    3.84031275893475
H         2.61076872892271    1.63221092366042    2.09410806338144
H         5.52062883040486    1.76926405235399    1.82431728526026
H         6.21796852776957    0.35223575518126   -2.31008416212294
H         5.54145240494220    1.95003348560770   -2.41473632777032
H         4.00308327429964   -0.65727555251904   -1.77577667590207
H         3.59550746480119    0.62242567342534   -2.90359568146325
H         2.39503389094901    2.58914732804957   -1.91036109006711
H         3.81764976562689    3.30384437310113   -1.35062720704793
H         1.75135140103645    2.70160743784464    0.48822119164239
H         2.59876520793581    5.07015772524233    1.11362890195093
H         4.09164868921825    4.52894179828976    0.32579333455534
H         3.17141580007682    3.95212598736763    3.08468730977684
H         5.75720645992335    3.67248302372564    1.82882976626175
H         5.32345235567399    3.75820190836544    3.42845982575687
H         2.86690967706582   -0.17894417755788    0.83585996768041
H         0.98272573504820   -0.71632510959302   -2.49452836415473
H         1.45301523627895    0.94572372773250   -2.35063564147553
H        -0.15249038457301    0.42676004655706   -1.82890399411149
H         0.88855811484936   -1.04458905516246    1.18429304625313
