39
 energy: -52.267063713103 gnorm: 0.106761986503 xtb: 6.4.1 (79825abcba525fcdf90b791dcacef51065a7a4e7)
C         3.93474162755277    1.38809536761858    3.60173671391339
C         3.63567568889986    1.97812846233657    2.21735524371032
N         4.75267936288266    1.76593438570795    1.31327880198789
C         4.76358679133344    1.25246329859010    0.04279422489128
N         5.82402612368824    0.69193132498075   -0.45873212068831
C         5.57576550033733    0.35661354276401   -1.85970470507793
C         4.09897447472298    0.62913164366693   -2.10812305102187
C         3.50742130287491    1.26603980088686   -0.84986203337683
C         3.06656566959588    2.73047464144121   -1.14072774024497
N         2.42759608223549    3.55850406838620   -0.09723992611335
C         3.26138619730676    4.19502925369975    0.91671258250712
C         3.35300756926461    3.50581185688530    2.30795633210700
N         4.42954520426464    4.23849780189365    3.01670393672572
N         2.56373229913507    0.43797744189236   -0.08684126206086
C         1.33840175765072   -0.10153192439035   -0.37180310687921
C         0.63507012129598    0.17190605844942   -1.67778499303581
N         0.78089326989214   -0.84762814429195    0.52222244540024
H         3.17953634958355    1.70086289622938    4.32773912985983
H         4.88526569529494    1.76117709644432    3.99408176331366
H         4.05702123525298    0.30809095318118    3.47345533511250
H         2.78827415871749    1.52889152561139    1.69387265374851
H         5.67358887330024    1.91364408503074    1.72205413225367
H         5.90068635373613   -0.64895422725473   -2.15309201112071
H         6.13876350826694    1.08117203715433   -2.45223125970993
H         3.74233126560497   -0.37749022845682   -2.35727216059279
H         3.89227159042963    1.34861864971141   -2.91064940004607
H         2.35577005819401    2.73780940498196   -1.97471373776430
H         3.96878798255397    3.26509267761461   -1.46393838558289
H         1.82487922182818    2.92264989009176    0.42245804171715
H         3.02207299634807    5.26626619409143    0.95949417305188
H         4.27112572581212    4.17191797847554    0.48737250036272
H         2.47994699102718    3.65440264487402    2.95789962603582
H         5.37459010368300    4.13522499084203    2.63907643743982
H         4.36294239455613    4.05699854586368    4.01620750848140
H         3.00347523903251   -0.03781677995102    0.69453035830019
H         1.25964203584993   -0.25200696845041   -2.45968466121964
H         0.43536913653665    1.24031503888421   -1.80080703724850
H        -0.30008300990687   -0.37925005948553   -1.53592582623979
H         1.49392058858688   -1.03308874546235    1.22948568866714
