39
 energy: -52.264660265377 gnorm: 0.105658216119 xtb: 6.4.1 (79825abcba525fcdf90b791dcacef51065a7a4e7)
C         4.02751985138015    1.49114980845126    3.82684096289902
C         3.78067710287989    2.06678659216780    2.42619736390031
N         4.74345118765894    1.48020648094243    1.51019104531605
C         4.70168986201887    1.25397861156398    0.15927301211780
N         5.78943993291176    1.29556170176692   -0.55159053627558
C         5.43252422465715    1.09358307317217   -1.95466265021254
C         4.03324617455108    0.49821172421126   -1.88800351575488
C         3.39666501677748    1.13467066986038   -0.65168137312929
C         2.87351894380551    2.54966590827348   -1.03591133178570
N         2.43815613102167    3.43761537963863    0.06171640839800
C         3.35615754193113    4.13771949676557    0.95367918057281
C         3.81224904290361    3.62074611584389    2.34784320271273
N         5.05450955038019    4.30589373088366    2.77847843735171
N         2.35200354443042    0.26435252398310   -0.09520527110028
C         1.17666473769701   -0.21866501488894   -0.60410732089514
C         0.84564270814463   -0.15197794181557   -2.07414462178911
N         0.27177156951314   -0.87919307309899    0.03747510410259
H         3.40734842183895    2.00220728026126    4.56808701202456
H         5.07393725258087    1.50960120637946    4.14510309375511
H         3.69005264202535    0.45716409157137    3.94852648825016
H         2.77939551327596    1.65914443067378    2.26745152209011
H         5.63534445562888    1.26011704521662    1.94959608944517
H         6.10934217422423    0.36694716527148   -2.42020957840433
H         5.52809160202658    1.99678813828079   -2.56139733287914
H         4.02853838949347   -0.56195787537166   -1.60769023732911
H         3.37035463142431    0.64016112283335   -2.75105702314429
H         1.97864733389927    2.40473957588649   -1.65155572512583
H         3.62811885171099    3.09404986844253   -1.61772896153736
H         1.66468750878919    3.06243937499410    0.60820829111725
H         2.88279783516015    5.12614357647153    1.02849951586108
H         4.26112338518310    4.26247838825458    0.34547445078702
H         3.08030160215048    3.88938907294412    3.12168051640089
H         5.86697291512206    4.04715185781521    2.21338235133694
H         5.29574418485183    4.09153038223489    3.74400394598775
H         2.33200304656606    0.13590393388160    0.91147071753772
H         1.33989230959130   -1.01252960414313   -2.51723332026907
H         1.26616089033894    0.70237416685518   -2.61243783684750
H        -0.20821140869118   -0.35953946107194   -2.28561135404234
H         0.45315351886859   -0.92854437995213    1.04131270026576
