39
 energy: -52.260869927106 gnorm: 0.126678458089 xtb: 6.4.1 (79825abcba525fcdf90b791dcacef51065a7a4e7)
C         3.74577151569526    1.74750420203096    3.85521417405735
C         3.55282304341221    2.01384420225797    2.35657297445460
N         4.58861475675255    1.29304764181160    1.63708315113681
C         4.69735407071355    1.12057112198316    0.28197052580585
N         5.87019836194115    0.76356577664999   -0.15074164715426
C         5.72638372645156    0.56713351061772   -1.59210463518957
C         4.27776818931895    0.68330088972676   -2.04477196304743
C         3.60657018948735    1.26038537232854   -0.79766542013058
C         3.06904977413658    2.69724624316375   -1.06229467528499
N         2.23163426226658    3.22572404371313    0.03416699098816
C         2.75034915761399    4.12272304086968    1.06120039732605
C         3.66699021240730    3.55613270601137    2.18268104206687
N         5.02073353468098    4.11645495796621    1.95573803403917
N         2.60771315890207    0.34938756302739   -0.22250928246284
C         1.38585472472781   -0.16239303461572   -0.56725724855914
C         0.51264533340815    0.65940142178972   -1.48223902842771
N         0.89364268317238   -1.21414372273671   -0.00307219621696
H         3.16295408915321    2.25687339348269    4.62729248614799
H         4.77897893850208    1.99054256153203    4.11985619312884
H         3.60258562228102    0.67050618579785    3.98708920661044
H         2.53910011851381    1.73192472904461    2.06191309868424
H         5.54413816788949    1.37352889148224    1.97984771950886
H         6.19696364922372   -0.39008472719496   -1.84725949679740
H         6.28186744835258    1.31482030619204   -2.16257968408220
H         3.91733103613497   -0.33972813794058   -2.20618427651930
H         4.11911384640370    1.38834637441116   -2.87071133547073
H         2.50197513461706    2.75159030412830   -1.99839826379768
H         3.91267989551434    3.39545059367167   -1.13360793237631
H         1.51903302389560    2.54576231668844    0.29400472772324
H         1.81885402894021    4.58500265486885    1.41512700409091
H         3.38898060846892    4.83604518540828    0.52476555316546
H         3.38107089746383    4.15456797220767    3.05838970360954
H         5.39076762560244    3.76514635809092    1.06915205194702
H         5.64579509920107    3.76794249767643    2.67977008454282
H         2.93172316395171   -0.37646954465223    0.40871540101644
H         1.00902815843186    0.96484689160091   -2.39955390209788
H         0.18171876098384    1.58168861413855   -0.99604298083390
H        -0.34763560076799    0.06827999139968   -1.81223999022231
H         1.35079274122283   -1.76418802679706    0.72596138704074
