39
 energy: -52.261767204991 gnorm: 0.120511886540 xtb: 6.4.1 (79825abcba525fcdf90b791dcacef51065a7a4e7)
C         3.56318965076216    1.22363466302336    3.47487687560083
C         3.65649988086606    2.06813570895054    2.19729998499476
N         4.81407581196943    1.78694635826120    1.36601889032171
C         4.78371976973065    1.33516463767910    0.07262243973355
N         5.88389580554107    0.99328821581161   -0.52986370129987
C         5.56400292730002    0.58011148660012   -1.89505565607164
C         4.04974151726684    0.64547623485107   -2.03516046106592
C         3.48214314493216    1.24430005533978   -0.74750752636455
C         2.88612865842438    2.64183788832798   -1.08689036737441
N         2.37539867406458    3.47828369875706    0.01868413354881
C         3.22263732665215    4.25516737307698    0.91707623995420
C         3.57338314768717    3.61925479244952    2.29241867846961
N         4.81045221702740    4.27617160779457    2.77842850238802
N         2.58204343820342    0.36110766938736    0.00630190073174
C         1.37294465973663   -0.19244676529763   -0.31829969645997
C         0.66376913134736    0.30398421748509   -1.55347529780251
N         1.00149407369920   -1.19222019451559    0.40918537368161
H         2.53291565359113    1.40302438607455    3.79361323411086
H         4.31155240951780    1.60458334693737    4.17591317782380
H         3.65380188221429    0.13379415192007    3.43180688220337
H         2.78195546786567    1.80202261338660    1.59872409955581
H         5.69993551839351    1.70701888869521    1.86185548495408
H         6.05851365155284   -0.39878783241989   -1.90066660487954
H         6.05081652182111    1.16847767832143   -2.67600202532240
H         3.68735532989430   -0.38120936038746   -2.16611922702045
H         3.75516031032575    1.19604100423363   -2.93767723128115
H         2.07649882437561    2.49777847884723   -1.81115776812196
H         3.73106323808677    3.19684626289411   -1.51390082927444
H         1.76687601588234    2.95515564931539    0.64614038091302
H         2.61545805796373    5.14001385370595    1.15166034007490
H         4.16866660065222    4.41972125191476    0.38567094677159
H         2.76736752569146    3.85946981242696    2.99908397566865
H         5.69024650488242    3.90270423142860    2.41392638657910
H         4.76887516739751    4.18068301603730    3.79111729082832
H         3.16396455773263   -0.27592144306254    0.54095818342567
H         1.32535941743102    0.30633578859484   -2.41571203165065
H         0.40346896890871    1.36603704735774   -1.52518631119587
H        -0.14254919174229   -0.42959672963378   -1.65406468168458
H         1.58887133791262   -1.55200966679987    1.16321744422513
