39
 energy: -52.260893971884 gnorm: 0.125776437502 xtb: 6.4.1 (79825abcba525fcdf90b791dcacef51065a7a4e7)
C         3.66089509052437    1.45527561777612    3.69887717310242
C         3.60559536666464    1.98510789457193    2.26001955137027
N         4.71209313877770    1.41712628698022    1.50959477422676
C         4.69471538512604    1.24893223918415    0.14970088541400
N         5.81956649761785    1.23221214154653   -0.50197908235123
C         5.55940730324006    0.90259093483198   -1.90214428590851
C         4.06572681991858    0.66137585751122   -2.06834729771959
C         3.44998181095463    1.13811809329633   -0.75214711951190
C         2.79093352507054    2.51520993462427   -1.05677708071757
N         2.37564374087072    3.36541584858458    0.07788851009372
C         3.45296839946637    4.09100997756965    0.74223383382202
C         3.65288539987336    3.53870344101530    2.18236055186099
N         4.94935229847539    4.05851620698497    2.67940523331699
N         2.59967594822532    0.14418642354304   -0.08318020868870
C         1.30009671055372   -0.16895659575199   -0.37770327671977
C         0.64371348532449    0.42371243669557   -1.59956125182283
N         0.69890633772249   -0.94463405984276    0.46113615613552
H         2.66433404463656    1.37979420932768    4.14205511464780
H         4.22015978595664    2.12943766044071    4.35412457775405
H         4.20507656089112    0.50786666466732    3.63484003275844
H         2.73275677297761    1.57403751823876    1.74707594467897
H         5.60893070656462    1.59349997481864    1.95855408120790
H         6.14732637299604   -0.00364099956221   -2.09164644840727
H         5.89013267806798    1.65004508589060   -2.62669415063859
H         3.98104056949679   -0.42560472589404   -2.18607034183981
H         3.80197192109421    1.14677372107496   -3.01663967955572
H         1.92341037212729    2.49123486762777   -1.72584032382004
H         3.51580750038935    3.09949608603528   -1.63768506902982
H         1.58689310011711    2.92691890384510    0.55038928279804
H         3.14794994155851    5.13330895169528    0.90723762762001
H         4.42353814304979    4.19097022056892    0.23979649997362
H         2.87604399208966    4.06573419837438    2.75288337727949
H         5.78236967849122    3.57864355879008    2.32985988422109
H         4.95604707797993    4.05023112080008    3.69737961532397
H         3.08329079220934   -0.31803288974869    0.68021065092871
H         1.36232734546474    0.40545975260912   -2.41468111119881
H         0.18941561306812    1.41304996478697   -1.49308423297112
H        -0.05301064270197   -0.36438749440687   -1.90268244688556
H         1.32687554959252   -1.11384827601838    1.24856622038046
