39
 energy: -52.262499814818 gnorm: 0.118521526108 xtb: 6.4.1 (79825abcba525fcdf90b791dcacef51065a7a4e7)
C         3.69845854356226    1.37075457408488    3.69511906575820
C         3.68897503882757    2.10693626452641    2.34899941175955
N         4.69277411864910    1.51405190263049    1.48242379420994
C         4.63221564140497    1.32885353247330    0.12598107543431
N         5.73541728607237    1.21652561526967   -0.55268300974097
C         5.40516466886776    0.72600292990111   -1.88951368232084
C         3.89592520677593    0.53873048017148   -1.95287620948165
C         3.33223403984074    1.19218388860635   -0.69031576153641
C         2.92390351986711    2.65156236946727   -1.04669572581270
N         2.52007526966384    3.57184042672048    0.03625984427172
C         3.62112821754404    4.16887116595628    0.78439531060388
C         3.74587974529290    3.65889297143309    2.24840814077284
N         4.88111444874060    4.35515126448040    2.89998445298514
N         2.22251686315668    0.57334363286900    0.04724879405788
C         1.29237395220978   -0.29436936659918   -0.45833690989635
C         0.90034233302139   -0.12417851377852   -1.90484260302698
N         0.80426922352457   -1.27139445316761    0.23009082025181
H         2.94941568252517    1.82424924331944    4.34972996134156
H         4.67137647147623    1.50738250584840    4.17614311103835
H         3.42144375181031    0.31820494772895    3.58014064983068
H         2.70507172581622    1.94655350402730    1.90161943042403
H         5.65852261347295    1.70861711758176    1.74022990092597
H         6.09612623867810   -0.07790983859271   -2.17078327720788
H         5.66731592909634    1.49683195892177   -2.61762000281849
H         3.76609473006530   -0.54996367496032   -1.97400310487128
H         3.60773824869785    0.90062976221468   -2.94807134446510
H         2.04770933466994    2.61320363431583   -1.70368067712056
H         3.81135213919973    3.10813741633068   -1.50305179536656
H         1.80423849502771    3.18358647523553    0.64822447600107
H         3.45659121040073    5.24715467567149    0.91432571103708
H         4.57233095239803    4.15367753632182    0.23719931059664
H         2.90300537636526    4.04046247160377    2.84061401561776
H         5.75548041096872    4.01686521611874    2.49080921247603
H         5.00525820246674    4.19570457086715    3.89775716346964
H         2.40417746615191    0.23586489762264    0.98714407917845
H         1.41615755781731   -0.95290928722402   -2.38264945474558
H         1.08642916447891    0.86597643047402   -2.33084440671738
H        -0.15913872987903   -0.23373428116381   -2.15763871881350
H         0.99349790907227   -1.44041077703784    1.21935866428959
