39
 energy: -52.267947074594 gnorm: 0.102751888122 xtb: 6.4.1 (79825abcba525fcdf90b791dcacef51065a7a4e7)
C         3.67487971413581    1.35553147820370    3.54520676275086
C         3.67375023007828    2.09801365925258    2.20251898454565
N         4.80986601797340    1.67330479516558    1.40318110694644
C         4.80684342117842    1.28230269224801    0.08978443725879
N         5.88182338181145    0.96773056543344   -0.57030556725470
C         5.52743228385684    0.76578882907552   -1.97402278500654
C         4.06904669712016    0.33346070030025   -1.91840436653610
C         3.52109108002865    1.15419920249316   -0.75009750478875
C         3.11884571602454    2.59998556813428   -1.16413426655027
N         2.56774470409054    3.49952508195287   -0.12977551108928
C         3.47493849326181    4.20000110125518    0.77288873054821
C         3.52193079738061    3.64667145159396    2.22567649438087
N         4.59222717929201    4.27282405000458    3.03837798572319
N         2.50478850604755    0.46552523618908    0.05693048247866
C         1.31425397214614   -0.11044897939306   -0.29604228543981
C         0.59970200152985    0.28014704522034   -1.56564168615514
N         0.68337923299917   -0.95604865482625    0.44807814836478
H         2.70022055054165    1.54611013480162    4.00232527769746
H         4.57421830342272    1.59836061722749    4.11865660935736
H         3.68168913418789    0.26425011199197    3.46228175241349
H         2.84223900873983    1.72245684689430    1.60128411080856
H         5.63512247031082    1.49127523164110    1.97134197824904
H         6.15896690335738    0.03208083909046   -2.48943798426205
H         5.72808149062872    1.62509426425690   -2.61774131875358
H         4.04710099363924   -0.69319571832646   -1.53362877820516
H         3.58563705582954    0.46536148649679   -2.89480258190894
H         2.32765257913326    2.44076465191982   -1.90540275897503
H         4.00063526453046    3.03694181319109   -1.64972988467342
H         1.63088280579122    3.22131279427002    0.15754282569449
H         3.22515299353756    5.26966752236205    0.76448595925905
H         4.45275660272336    4.08321136002447    0.28845828862837
H         2.55420286565491    3.85453182861404    2.70216048643416
H         5.45021425949206    3.92005406277877    2.60734530473334
H         4.55881444246718    3.86561867048979    3.97082244639301
H         3.04768507727623   -0.02244606752977    0.76222682779511
H         1.22734397951122   -0.14034224890827   -2.34693146961039
H         0.28598817244986    1.32486592771022   -1.64724279815019
H        -0.32643633057682   -0.30337958079390   -1.55249127939302
H         1.11011579072050   -1.21105067087721    1.34020748945153
