39
 energy: -52.263818184089 gnorm: 0.118341987422 xtb: 6.4.1 (79825abcba525fcdf90b791dcacef51065a7a4e7)
C         4.01051618628597    1.84438663601678    3.98325999330441
C         3.59725186725216    2.00885144112590    2.51484061073637
N         4.36448963011959    1.05990533776879    1.72685249566748
C         4.61609864967098    1.20333038043664    0.38744040200996
N         5.79103827919876    1.06399835187923   -0.15141004587743
C         5.65897627341796    1.01646600425490   -1.60643438946299
C         4.18542098680423    0.79952136660571   -1.92021675768641
C         3.49788446049160    1.33738668371448   -0.66450883261492
C         2.90783894368667    2.74943729478514   -0.94996520275203
N         2.07799346670984    3.20173117185273    0.18562646682528
C         2.73843860231940    3.98377137717306    1.22519142347369
C         3.87667396306357    3.50007640480084    2.16828935159860
N         5.12162166281527    3.86326397658061    1.44975950046498
N         2.52421005335837    0.38308991087154   -0.11704855529261
C         1.40947898346282   -0.21567850278627   -0.63912094899119
C         0.79143383338652    0.35682302570178   -1.89023829234446
N         0.83023007779898   -1.20785642804931   -0.05021464448094
H         3.38568668671339    2.39722423139891    4.68979855365878
H         5.04174120067694    2.19468338448430    4.08566984731348
H         3.97171039186110    0.77239511924370    4.20039186476714
H         2.59268433662973    1.72035763039801    2.19616741997886
H         5.14661730291919    0.68866953943611    2.26299617561589
H         6.34802019247402    0.22746351564423   -1.93125705909882
H         6.15207762443030    1.89535740426015   -2.02767119915210
H         3.86930924326038   -0.23577491700426   -2.09569391317296
H         3.88351332642404    1.35018095717093   -2.82025117581740
H         2.18563563181221    2.75022464071620   -1.77412453644857
H         3.70091750462820    3.44485459129170   -1.25279823289869
H         1.38030199551721    2.52776878018546    0.49653710862063
H         1.93105394259421    4.32209970017103    1.88875273725587
H         3.21522569193832    4.87900334159866    0.80605570050926
H         3.97227944422740    4.12130128575531    3.06922193439873
H         5.17029118817005    3.56697137304220    0.47189466674155
H         5.91145211542796    3.36487614895345    1.85492950536057
H         2.87462580266216   -0.10311028193180    0.70216679495708
H         1.40158270679310    0.48695626196941   -2.78015014659373
H         0.36272936500674    1.34266215343768   -1.68813349433535
H        -0.03188401069681   -0.29551131802217   -2.19848510306087
H         1.22726570109715   -1.50773185641729    0.84167229967164
