39
 energy: -52.261121090192 gnorm: 0.115609527038 xtb: 6.4.1 (79825abcba525fcdf90b791dcacef51065a7a4e7)
C         3.93079333728754    1.72615125215319    3.95138145514110
C         3.66948129616424    2.02461581321434    2.46924567192132
N         4.56166448921188    1.21810301074815    1.65461445666544
C         4.70644417443384    1.14855824032857    0.29369381494226
N         5.87453537604780    1.10395860776831   -0.27536698873795
C         5.66025584481894    1.02344113028854   -1.71911100085949
C         4.21697992234073    0.60795794852717   -1.96653349468919
C         3.55730236205858    1.22121691749009   -0.73059379026941
C         3.06334329030522    2.66501256775619   -1.03878947164825
N         2.25800409255234    3.22874387862616    0.06412372076253
C         2.89317205810210    4.10491524116869    1.04256910436098
C         3.71785242783927    3.56388883785345    2.24513593931246
N         5.12223862759526    3.97635454286420    2.00921944968048
N         2.44635985266092    0.38928814625132   -0.24878656327543
C         1.26427911792177   -0.18849164880006   -0.62636330423558
C         0.61897481428451    0.11908699188088   -1.95452374413492
N         0.53227522868385   -0.95734389258414    0.10834310105791
H         3.28748845517032    2.24402273676767    4.66776543188611
H         4.98202091764425    1.98138961970673    4.11384552123889
H         3.78465573540840    0.64769861994359    4.06714705429846
H         2.66875784040790    1.64611011251441    2.24738262969786
H         5.52582699080126    1.22485328225814    1.98223447964328
H         6.38184680712216    0.28181742289848   -2.08259000266985
H         5.94888984092547    2.02283368575551   -2.05219421975594
H         3.90261603886402   -0.44234830054584   -1.94225580992104
H         3.88229311700448    1.03698133584220   -2.91961264151579
H         2.46386213840622    2.70245126947124   -1.95532509642915
H         3.97708125076771    3.24682726154396   -1.21446327345123
H         1.59692337626902    2.58410895589053    0.49433556531472
H         2.14248187098917    4.79841243708137    1.44527935129512
H         3.61350897960506    4.78355953103653    0.56822998143510
H         3.27312120990427    4.04862220026320    3.12490181569217
H         5.69561802512627    3.28099438999259    1.52539304550368
H         5.53724121984326    4.08088374637621    2.93292492224333
H         2.52374214441162    0.24350975121866    0.75274040148174
H         1.19453457142629   -0.35348670688763   -2.74608201028526
H         0.50501401775454    1.18885863229334   -2.15229691902235
H        -0.31982447196767   -0.44250638634809   -1.91356953298885
H         0.79914181517457   -1.27248986329010    1.04241489638957
