39
 energy: -52.265639772016 gnorm: 0.123230900279 xtb: 6.4.1 (79825abcba525fcdf90b791dcacef51065a7a4e7)
C         3.58068891219517    1.54828857220387    3.80372974274429
C         3.62290706710766    1.98157680196306    2.33248184441524
N         4.72131716414594    1.47464260129577    1.52837324917942
C         4.74325771686757    1.34746815177797    0.16409767280532
N         5.85553654694888    1.14490506981895   -0.47782160718437
C         5.48437577762637    0.88458419311782   -1.86752239395484
C         4.00621726439565    0.52390287880462   -1.91048717840087
C         3.44339863903325    1.17255320054529   -0.64506391136504
C         2.98784420723275    2.58307572727207   -1.12090263143467
N         2.46924248346124    3.48407113571187   -0.07112109509463
C         3.56016434967260    4.01374810344824    0.73992867348605
C         3.65416561836731    3.53316039292303    2.21613102860686
N         4.90331299449488    4.13391214617506    2.74226145940688
N         2.39436244946321    0.39829060104126    0.03204584002811
C         1.29777373078138   -0.25616745559092   -0.46078941816198
C         0.47649682322369    0.29980015181931   -1.59720345156668
N         0.86446643735665   -1.32711679219714    0.11546522929740
H         2.81130590374241    2.05963860856731    4.38837402939232
H         4.56084125954036    1.72745452265759    4.25519572156101
H         3.54472964916392    0.45444218299931    3.79873644657864
H         2.71991185561117    1.54616143510307    1.89779776616521
H         5.57617409648190    1.72220414352812    2.02326984142487
H         6.24528198472624    0.17947955217821   -2.22342324816284
H         5.71034466879727    1.79863894235352   -2.42113008299588
H         3.94323746481514   -0.56986744988207   -1.86297605807133
H         3.65359571215550    0.92695307287739   -2.86842495939960
H         2.11222480850797    2.39398386580267   -1.75205382113474
H         3.78339825168181    3.08089796971568   -1.68972024691904
H         1.89550272520372    4.25459858596298   -0.40990460103399
H         3.44248916240076    5.10573812871882    0.72095576367458
H         4.56119923648667    3.95378437753132    0.29408741372960
H         2.79627466214383    3.93439237489760    2.77270647495671
H         5.71101774320176    3.59877028688967    2.41421591429714
H         4.95126215101132    4.02607879411876    3.75342817977465
H         2.83303863512941   -0.23280186587021    0.69505502562946
H         0.95498692894494    0.19126825479383   -2.56695987024634
H         0.31593900056873    1.37215861046100   -1.45304651949495
H        -0.44195098982676   -0.28871404510875   -1.50493668852712
H         1.56523400316892   -1.77222477418434    0.71030017811114
