39
 energy: -52.268203917426 gnorm: 0.123762052410 xtb: 6.4.1 (79825abcba525fcdf90b791dcacef51065a7a4e7)
C         3.82386875449722    1.71741466896633    3.88608707915563
C         3.63021317284138    2.09222255835539    2.41092332052991
N         4.61377474748165    1.39785370590398    1.59818948399467
C         4.69398662486615    1.22744874275553    0.24082776972597
N         5.87485597219973    1.16393379114925   -0.29932943707396
C         5.62600468333232    0.80010180468991   -1.69306358365896
C         4.14365046475270    0.55503340461561   -1.93690162304202
C         3.46833907564064    1.12211958646175   -0.68743142722091
C         3.08296229015175    2.60201958740163   -0.97881901197691
N         2.24049171690159    3.28159997219810    0.02676317909455
C         2.94285337967541    4.13259870280847    0.98120501642993
C         3.75827758696946    3.62965431522932    2.20640074532010
N         5.17159674214039    4.06284550735858    2.09256095440460
N         2.48089941613441    0.19384620359670   -0.12023800903891
C         1.27472741842221   -0.23469682122670   -0.60522104659621
C         0.57794530621247    0.50957295466388   -1.71679183196760
N         0.63265328220592   -1.22093535266826   -0.07434315436923
H         3.13479108172470    2.16407831919120    4.60782220476121
H         4.80829022866029    1.99762380775096    4.27211534107519
H         3.61834875805240    0.64482284651335    3.95768501811655
H         2.66748355266106    1.79320106437764    1.98940816036008
H         5.55295871176085    1.42820649367038    1.99062031481023
H         6.29105940381641   -0.04833914262112   -1.89472269807094
H         6.06047198659271    1.66198017345941   -2.20437887857850
H         3.98486484094151   -0.52447855125559   -2.04643849719504
H         3.70497295390020    0.96712641502386   -2.85460395465323
H         2.70900173473616    2.80193725042344   -1.98926608278698
H         4.05956384656624    3.10171347642694   -0.94980003874457
H         1.57825338830092    2.57480448564180    0.34227017311037
H         2.08433472801631    4.64509312952079    1.43611693358936
H         3.44737533700195    4.89446978601735    0.37338020640664
H         3.29149857961790    4.10568478307681    3.07947155360636
H         5.52541298845225    3.56225686946354    1.27365757475423
H         5.66672955909777    3.77335620411297    2.93364640883405
H         2.82238423333622   -0.31555481368135    0.68858479655731
H         1.41225481677085    0.77516749216960   -2.36064477296639
H         0.02549125097990    1.34084100835164   -1.26924228000152
H        -0.10390157509359   -0.20733283870856   -2.18534212950719
H         1.08654499845300   -1.73533560446507    0.68222777533058
