39
 energy: -52.265218301516 gnorm: 0.109596045703 xtb: 6.4.1 (79825abcba525fcdf90b791dcacef51065a7a4e7)
C         3.53693285643438    1.28562517601737    3.53826829361489
C         3.51744049255206    1.93951161192821    2.15041234215491
N         4.74458941157014    1.54225217491619    1.48230437379227
C         4.79775190290632    1.42283195880138    0.11818737316648
N         5.95165665285467    1.20916165109625   -0.44137066765784
C         5.76900849017440    0.76468123564394   -1.82190402616317
C         4.27932469910587    0.49374074729314   -1.97786232575594
C         3.58379449012704    1.17423472588434   -0.79804299401491
C         2.98363740110867    2.50789666595018   -1.33160018168779
N         2.51136554849063    3.54113160814910   -0.38705450134180
C         3.41558710252678    4.01720965668143    0.65419620559297
C         3.37823950482600    3.48915961366206    2.11664025079503
N         4.47454512325437    4.08841228357576    2.91482279702170
N         2.67471940571809    0.25301860791917   -0.10278745500416
C         1.35395269139958   -0.10226194264543   -0.15810065619810
C         0.45576510045796    0.64166650913658   -1.11458479962022
N         0.82978786652379   -1.06470865003586    0.52432481921670
H         2.90136660729976    0.40852998838163    3.68658425675713
H         3.28896622571654    2.06631645019694    4.26328850589810
H         4.55763646055332    1.03435364272365    3.84297261193159
H         2.59586945016116    1.65283636115257    1.63810254796837
H         5.53282616511746    2.10269799641614    1.80100968615061
H         6.42436771671703   -0.07893232036890   -2.07017136175046
H         6.13705472930740    1.62832032922053   -2.38021305488184
H         4.00787346843971   -0.56826298374271   -2.00979301683406
H         3.96034591821749    0.94259238291050   -2.92718889194359
H         2.30824487025101    2.26907123246647   -2.16083126427075
H         3.87067487094399    2.94324071362054   -1.80901694789460
H         1.66971142719311    3.25059118828447    0.10778762316766
H         3.30405550096870    5.10929368424653    0.69372898147909
H         4.44750909680393    3.86364560745077    0.31361430004230
H         2.47968654148820    3.86184724568067    2.62698012515841
H         5.34568255497194    3.85295026627274    2.43310204804476
H         4.54100660470168    3.63950318453598    3.82611243155494
H         3.21994907868630   -0.48210473521384    0.33609052809724
H         0.33991849142252    1.67759550314887   -0.80702976009912
H        -0.58031028894644    0.31931499928008   -0.97620146426060
H         0.80327999200852    0.58722099244340   -2.15125135402028
H         1.52286018744760   -1.53691491260164    1.10716003230554
