39
 energy: -52.257325303952 gnorm: 0.124758707071 xtb: 6.4.1 (79825abcba525fcdf90b791dcacef51065a7a4e7)
C         3.57955092127114    1.58217445637163    3.81147966142053
C         3.59032378628557    2.06516836905522    2.35521993616014
N         4.54472917144957    1.24429603552894    1.63040495375893
C         4.69014905775175    1.31343966742971    0.26953212314035
N         5.85463836586501    1.25081067449010   -0.30518402048759
C         5.62103846925703    0.85383045942787   -1.69249557396437
C         4.13020084698818    0.70045032613808   -1.95851673614888
C         3.47779638373479    1.22209922280384   -0.67747855295411
C         3.00700051111176    2.68414320656550   -0.93106213361195
N         2.24695519839030    3.47758134377715    0.05664669942859
C         2.90978053705336    4.27316909086880    1.08434931457064
C         3.76730269082558    3.60305076482617    2.19546202405685
N         5.14741707346070    4.00160997421797    1.82869235233892
N         2.54355492994322    0.28165484809212   -0.04407961523920
C         1.40531438320740   -0.34336530684610   -0.47705400297553
C         0.80664357666144    0.30397646352616   -1.70080819479882
N         0.82948389311763   -1.38219578240612    0.02891778768388
H         2.64356682173637    1.77799383274891    4.34141039939185
H         4.47163250707070    1.99159887720873    4.29436961795777
H         3.73695560354321    0.50128047133315    3.88010845380234
H         2.56763859494462    1.87297146556752    2.02188442838290
H         5.50015383434740    1.36838274535555    1.96018667227131
H         6.02990119681628   -0.14399380244054   -1.89248116228416
H         6.15977730060887    1.57068094543713   -2.31613436415269
H         3.91509835854756   -0.35979549224447   -2.13786831061970
H         3.65657453413863    1.25408791879419   -2.77924794449458
H         2.35517775740789    2.63885423433461   -1.81077394225114
H         3.90378761834057    3.27139503649525   -1.16599796879855
H         1.60795609664225    2.90491075518810    0.60563911297059
H         2.03998386122139    4.82063354465236    1.47214574838690
H         3.59682270433920    5.03044011483077    0.68565819489530
H         3.52286985369874    4.11646616886335    3.13535430311780
H         5.52992180039097    3.49250086837286    1.02814521603496
H         5.56319468474694    3.52698914440484    2.62759744903027
H         2.83924682411403   -0.20357937073274    0.79699687776552
H         1.56373842702671    0.40544671480984   -2.47389977944008
H         0.45883912752261    1.28193228804837   -1.35563123587560
H        -0.05372602964477   -0.15908477168974   -2.19451549031064
H         1.39832875207286   -1.85414895619116    0.73368768580858
