39
 energy: -52.259054059208 gnorm: 0.117662962114 xtb: 6.4.1 (79825abcba525fcdf90b791dcacef51065a7a4e7)
C         4.18593540955822    1.39102498299967    3.61036103791535
C         3.79645501653902    1.98696821901726    2.25122593560499
N         4.87811975588876    1.63169294033064    1.34908480824100
C         4.85362286512690    1.15980903836902    0.06276133091603
N         5.97623507776297    0.82881464418643   -0.50331365723406
C         5.62690092286760    0.42250931942068   -1.86334203010376
C         4.17318656698480    0.76388563835313   -2.15841204034391
C         3.57979566586264    1.15618481351075   -0.80460386925941
C         2.97292412066042    2.57652924304393   -0.99916650737487
N         2.23669181733918    3.30888494842892    0.05173730005076
C         3.02383796412494    4.15778422317535    0.93956663609767
C         3.35536365816737    3.47864192037003    2.29891600669893
N         4.41285961555942    4.32290620215064    2.90472559647728
N         2.63119167487319    0.22944083585426   -0.17235946555831
C         1.31371858978815   -0.05404504526292   -0.41237815131204
C         0.64150963762094    0.33717821213008   -1.70470624407093
N         0.48313730070505   -0.56284378937441    0.43497981632511
H         3.31087426361900    1.10840396732599    4.20165740950296
H         4.79985692281049    2.05196821225979    4.22913000941223
H         4.84287089996571    0.53551825738473    3.42499126369477
H         2.98824544738140    1.35260040495772    1.87932276108674
H         5.85311786278263    1.57571609362156    1.63758965021660
H         5.86257690240532   -0.64850238035539   -1.87772920809575
H         6.28705607867450    0.86059570257705   -2.61521633919119
H         3.56520570998043   -0.04038858639670   -2.58975820214526
H         4.05436466928381    1.60853983513467   -2.84897472770502
H         2.37971775540482    2.59188764121109   -1.92040870261778
H         3.91951614177176    3.11569955592315   -1.13162633171167
H         1.68654083772010    2.67298871379391    0.62674512974931
H         2.49959456188504    5.11499938600560    1.06429692495371
H         4.00219843639035    4.42673979815920    0.52133866357420
H         2.41304636407692    3.66609386346169    2.83149479410360
H         5.35752160023263    4.19474187945639    2.53382762687395
H         4.34170434291141    4.26817327552729    3.91878996200722
H         3.02275124201511   -0.33771980609148    0.57282877734312
H         0.96074574369815   -0.16629508846595   -2.61342091862234
H         0.65223664852085    1.41454183370794   -1.89361154460853
H        -0.38535325919009   -0.04179777551573   -1.72309797546929
H         0.89798003441814   -0.67064594069032    1.36196907441187
