39
 energy: -52.271052978011 gnorm: 0.115488656588 xtb: 6.4.1 (79825abcba525fcdf90b791dcacef51065a7a4e7)
C         3.85065045578511    1.75212055223850    3.84761647847253
C         3.69887944423223    2.06519295862923    2.35327957772366
N         4.73301679572223    1.35322859162377    1.62270143018766
C         4.76249793945757    1.15452170274212    0.26713916904703
N         5.84140901777138    0.74625065216079   -0.33246236542438
C         5.54363324996403    0.47277256096836   -1.73721674631187
C         4.02645194526283    0.48205452712057   -1.85954530526377
C         3.50958945452801    1.22591802775068   -0.62734067146744
C         3.14845516793604    2.72026229578025   -0.87237795578294
N         2.18613028333887    3.22680103547676    0.12768756529765
C         2.65511364984544    4.12064896266007    1.18104431939279
C         3.70887660373640    3.61451553099386    2.20690339824642
N         4.99278010676445    4.29072155125327    1.90289296885255
N         2.41674962206249    0.50265380489277    0.03675793209704
C         1.45426281915605   -0.14335316079090   -0.69125496106555
C         0.73764097171612    0.52954232043566   -1.83523802662369
N         0.98353974293389   -1.28799753827577   -0.32387771813755
H         3.05802352370673    2.35783100712611    4.29493676732229
H         4.83053257303552    2.03718134965877    4.24156063056472
H         3.77961166419279    0.67081810735907    4.00109762320006
H         2.69209330478641    1.75047160858259    2.06820180582061
H         5.62308080027358    1.55367622622183    2.07502495592327
H         5.90141854788977   -0.55862001208013   -1.84226561212420
H         5.96465724404734    1.27874200061870   -2.34235437316025
H         3.53929982277082   -0.50040166408707   -1.85508307616513
H         3.62879447697796    1.03226874861790   -2.72184979738892
H         2.62131364547717    2.80293338672196   -1.82951126486019
H         4.07054886020905    3.30510351897769   -0.98187975205212
H         1.63250584609780    2.45588813927751    0.49763001739306
H         1.76539729091606    4.31910528028127    1.79396319710393
H         3.09425916969532    5.04622116600268    0.78746045261938
H         3.46170905767963    4.14739190941766    3.13517666111056
H         5.56328159392374    3.71284022602718    1.28083277066072
H         5.46043777361296    4.45593666723398    2.79192928672387
H         2.84138909165014   -0.15416095525262    0.68372882011514
H         1.39270349781747    0.55835866546408   -2.70196874314333
H         0.57452499048666    1.58011101497409   -1.57792253758647
H        -0.18227916384895   -0.00605533837983   -2.09075820681542
H         1.40704498200357   -1.79973154755956    0.45187772169042
