39
 energy: -52.271796480565 gnorm: 0.114698008330 xtb: 6.4.1 (79825abcba525fcdf90b791dcacef51065a7a4e7)
C         3.87444664149913    1.67380687688697    3.93019185174933
C         3.64524824219958    1.98229501160976    2.44479805742308
N         4.55771146167053    1.12724257523792    1.70562691355421
C         4.71369021130982    1.14691910300831    0.34430913615360
N         5.88669290786706    1.00735506035701   -0.19868526817613
C         5.68445720526860    0.78917045407329   -1.62987070150127
C         4.19376020334838    0.55451793350774   -1.82899422490003
C         3.51673678785283    1.20973790663212   -0.62436396793644
C         3.12099167070915    2.69407921236002   -0.87663903249577
N         2.15552082920965    3.31113645285637    0.05603890169739
C         2.73060919018138    4.07803777813243    1.15585966014569
C         3.82259773357501    3.48785348854908    2.09299241264046
N         5.13697062519585    3.86270632160835    1.51854102842065
N         2.32593250803341    0.59435453014845   -0.02292784396729
C         1.26655691704405   -0.06540424047905   -0.58520027466525
C         0.86632508243209    0.22796715959646   -2.00955280267662
N         0.44240949009151   -0.81401251245797    0.06834670110719
H         3.20319878339330    2.26240070565199    4.56123992263251
H         4.92415014390696    1.88759663129917    4.15163511703553
H         3.81080412762172    0.59109411914131    4.07682290911129
H         2.60473821990553    1.69781214502643    2.27059818570060
H         5.49560048045038    1.21294202332798    2.09293760002092
H         6.36706266320710   -0.02196296811137   -1.91081300518950
H         6.13341792986041    1.66503722780424   -2.10350679650748
H         3.82454201965438   -0.46278163169867   -2.00601621863210
H         3.84130830938739    1.19994406671692   -2.64363460962739
H         2.64899753501202    2.78840356399200   -1.86108878466069
H         3.98032880078979    3.34875073060591   -1.06959387623064
H         1.49468652748496    2.60786237117758    0.38217954482176
H         1.89714864689193    4.36518477121652    1.81125251091303
H         3.18323088459434    5.00519285005062    0.78175001093249
H         3.72583479696566    4.13387986309459    2.97618386465974
H         5.45862646686727    3.47980833503482    0.62618218082643
H         5.83550540701955    3.74826205923029    2.25020828450246
H         2.55605133675764    0.22229127478053    0.89299239060344
H        -0.11528514117619   -0.21171662906882   -2.16536986818890
H         1.66052892723780   -0.14540408322652   -2.66250519549691
H         0.77654319906637    1.29790048353961   -2.22307179744024
H         0.66475680402617   -0.88073003391276    1.06289952900698
