39
 energy: -52.268555660813 gnorm: 0.116008212270 xtb: 6.4.1 (79825abcba525fcdf90b791dcacef51065a7a4e7)
C         3.47988948492100    1.49041532133464    3.64579470834718
C         3.48777373379855    2.06388516713608    2.22271293289466
N         4.57907413091245    1.40944619391941    1.52210544268133
C         4.65055657966813    1.37224540726749    0.15411092914788
N         5.82265713347193    1.05413261357716   -0.30982971086199
C         5.63929729454334    0.95633674337337   -1.75676118286631
C         4.17417097393839    0.62315167532328   -2.00024034823860
C         3.44389329804139    1.20740967282526   -0.79022173049729
C         2.76656955203983    2.58147603774864   -1.06716959527912
N         2.40272044544332    3.55293535200579   -0.01518941327334
C         3.46666973710286    4.16232992054215    0.77545596877312
C         3.76458890138698    3.59502684754100    2.19263121127427
N         5.12566794371747    4.06439935060091    2.54652164166631
N         2.58636147892648    0.23723801607756   -0.09607258287330
C         1.34515167199797   -0.27054427056328   -0.37041524877814
C         0.67569803315251    0.13500295701303   -1.65975448709129
N         0.71035093903747   -1.09811836218444    0.39044354823413
H         2.78404341852283    2.07658443883061    4.25196470919789
H         4.48130819709818    1.73006517188888    4.01504954747590
H         3.16297985855572    0.44473223598743    3.58308006120174
H         2.54069395275633    1.76799296172071    1.76508328052190
H         5.48467308206428    1.36606724995301    1.98578482714094
H         6.26002598353160    0.22201503992302   -2.28428724686321
H         5.90394810097640    1.93723603965932   -2.15780483261672
H         4.12139185419710   -0.45997606426180   -1.83712710151628
H         3.77408224309501    0.82119294456045   -3.00280946042273
H         1.83545192613349    2.31846254999214   -1.58162146323557
H         3.48093115678896    3.20041719491674   -1.62474112458632
H         1.72243377136924    3.11273034485190    0.60213846932207
H         3.21714485731718    5.21043894038786    0.98959255195409
H         4.42141704375125    4.23770510467217    0.23952956376216
H         3.03895450212068    4.06355379399150    2.87136348942013
H         5.85946399992669    3.80220649905867    1.88381814786081
H         5.37217435613326    3.69058827362096    3.46078920211213
H         2.92140335157546   -0.17533707176070    0.76869578977957
H         1.39917727187018    0.50855176568147   -2.37961453937705
H         0.00732166437849    0.95964758591198   -1.39565805993785
H         0.01927803826910   -0.63506327908972   -2.07750948589645
H         1.26162345207770   -1.28127548941951    1.23042983628888
