39
 energy: -52.261461121757 gnorm: 0.123760991973 xtb: 6.4.1 (79825abcba525fcdf90b791dcacef51065a7a4e7)
C         3.61046864078352    1.42377741485559    3.56677619889258
C         3.61191121347232    2.06911555429674    2.17478904512486
N         4.76717887764363    1.58591728716456    1.43861381070616
C         4.76433980176375    1.34681326051073    0.08927172115914
N         5.88280051413917    1.20876333700205   -0.55899088163416
C         5.70442487630446    0.61187137880585   -1.88137423558115
C         4.19564603358718    0.42505064890527   -1.95603383280079
C         3.51246199606636    1.12876357691689   -0.78263879002834
C         3.01672292633082    2.51266731378676   -1.29506396722673
N         2.62601099547155    3.45847566214787   -0.22943147424259
C         3.56959921709997    4.08131189031002    0.69262402800738
C         3.59938010126220    3.62531260941556    2.17928206173844
N         4.68173832609885    4.17622988929318    3.02962082808373
N         2.58006618523541    0.24938328680989   -0.06447051946757
C         1.26506278967177   -0.07881738153844   -0.25619749724363
C         0.48529174186056    0.27130753568011   -1.49893731796181
N         0.52722980603019   -0.68114698302496    0.61532913221653
H         2.56314688180212    1.43967226769549    3.87998946623885
H         4.20578214582366    1.96665067080164    4.30671612589563
H         3.89595831031349    0.36736661462045    3.58437838174001
H         2.72507343166671    1.67135772978483    1.67554489807301
H         5.64140171113429    1.96288435116286    1.80002784854893
H         6.27483341548796   -0.31581983642587   -1.75160767807320
H         6.24620506351263    1.23735186477828   -2.59431737065660
H         4.06834177535138   -0.66413873299868   -1.96021057397028
H         3.77560504149188    0.69083901994387   -2.93448074344206
H         2.07835938448244    2.34748788308552   -1.83636476566609
H         3.63500825817565    3.03531930046122   -2.03590464826883
H         1.82250007074956    3.21833104524079    0.34881148413885
H         3.39612681050173    5.16380657308117    0.62361479537352
H         4.55776598286729    3.96417864256909    0.22975555186835
H         2.62703147497322    3.95982155479223    2.56578203963881
H         5.60697056641851    3.74473497245778    2.96531598874896
H         4.41289868922383    4.12609343066451    4.01023130012279
H         3.00365576627872   -0.23137420447008    0.72276503833877
H         1.09534446449871    0.43729510810823   -2.38293011506594
H        -0.05670762205807    1.19503005970641   -1.27648264191829
H        -0.25599139028846   -0.48698650717901   -1.77077912350451
H         0.99287479118907   -1.13420542296460    1.40332514258335
