39
 energy: -52.272323615151 gnorm: 0.106354543435 xtb: 6.4.1 (79825abcba525fcdf90b791dcacef51065a7a4e7)
C         3.81570329351565    1.60881138764462    3.73984917103275
C         3.61421704312085    2.20574522646153    2.34086209682468
N         4.63425021546579    1.54436171383800    1.54576340683051
C         4.57807963143182    1.38103445735325    0.18632541419090
N         5.64881342985594    1.05254794996082   -0.47388825933732
C         5.33537419490775    0.68411363416491   -1.85331115888346
C         3.81854901457916    0.56479424300667   -1.89682882247647
C         3.28964804956653    1.28070463698823   -0.65322757725761
C         2.72874265456618    2.68216635445559   -1.03377476819428
N         2.47235863304355    3.61478650710147    0.08303702688859
C         3.64856002284714    4.16854475887474    0.74513374050291
C         3.76007705746102    3.75182417146678    2.23941690583658
N         5.01553865866966    4.29293885956612    2.81308597321703
N         2.36320464250322    0.37709001216374    0.04220046818889
C         1.45195720513288   -0.39666358395901   -0.62461439426492
C         0.85848289523858   -0.03297824650508   -1.96273010201340
N         0.90476288398735   -1.40549294430041   -0.03334568801218
H         2.97946384796968    1.82067898843515    4.41145452900598
H         4.71028881636707    1.89367430839683    4.30126744248093
H         3.87840739445945    0.51708263532696    3.69496624646186
H         2.62190214288070    1.95423372796757    1.95877532092134
H         5.53498867591112    1.50597486697621    2.01924669356668
H         5.99330005385822   -0.18421214837135   -1.97964450744844
H         5.67064349476026    1.42372315635656   -2.58379848622861
H         3.46964552033702   -0.46716555299038   -1.77080263252972
H         3.40151317781038    1.01132679228078   -2.80848992832168
H         1.75425500871441    2.73879597215781   -1.53175444166381
H         3.45371863333016    3.23131007905634   -1.64789012301875
H         1.93337836502471    3.11262369263548    0.78659719261840
H         3.58460870591898    5.26186021502549    0.66015608133492
H         4.54202910097918    3.72622695295976    0.28632122925722
H         2.96211470756479    4.18911980461806    2.85485894105969
H         5.85792744889396    3.78532922317541    2.53185431459317
H         5.00178625254936    4.31523075253447    3.83077907344062
H         2.79030738402064   -0.06896678053193    0.84775133577420
H         1.03747224154752    1.00076307067700   -2.24645730227302
H        -0.19200680548578   -0.32950860456762   -1.89164003101432
H         1.38736998312192   -0.65943938311661   -2.68814954058975
H         1.33937627029671   -1.70128580303245    0.84223564621975
