39
 energy: -52.265811097718 gnorm: 0.120519398617 xtb: 6.4.1 (79825abcba525fcdf90b791dcacef51065a7a4e7)
C         3.86133142648911    1.80668505558482    3.95998455434020
C         3.64430382112995    2.06702979162856    2.46358515247949
N         4.55642327305705    1.25680161493984    1.67513975763608
C         4.76698967849659    1.19094808587788    0.32265032096180
N         5.90133910444658    0.89793702075075   -0.24095612577017
C         5.70629537194933    0.77949153301115   -1.68481350825987
C         4.20517565681494    0.87204527218949   -1.91925523734424
C         3.53025545301534    1.23497048560024   -0.59578406029971
C         2.92908964717946    2.66328375013320   -0.74426590067101
N         2.05219196724113    3.19129952966948    0.32111266302053
C         2.64226507680793    4.12861787382606    1.27070099832600
C         3.83418802128507    3.56764860011985    2.09750655644555
N         5.08801815963104    3.89538463545426    1.37737864753857
N         2.52603437298918    0.30611969745708   -0.05986134871718
C         1.44025990962953   -0.21718535374740   -0.70867117886400
C         0.73778381866063    0.46256445152495   -1.85736607006078
N         0.83424514861173   -1.23582173634446   -0.19692612079548
H         3.25739908811591    2.53362530106086    4.50958591491437
H         4.88152600559847    1.88853471638996    4.34615066727974
H         3.52782494609049    0.80063356146557    4.23284306128356
H         2.63874278252699    1.67672798940106    2.28908961156357
H         5.41067135654353    1.17513309241566    2.22339172314544
H         6.14065675857645   -0.11686191204018   -2.14383082607916
H         6.18815117946134    1.70325618778809   -2.01270576045444
H         3.85124869216646   -0.15855520283058   -2.04236345215296
H         3.88048346251328    1.43752111348517   -2.80200560728144
H         2.36502580424551    2.59752499162360   -1.68145564718920
H         3.63973903469469    3.47651115468558   -0.93901007734247
H         1.58602117221902    2.41957747699490    0.79523710523838
H         1.87101056114633    4.41310836746862    1.99931700686704
H         3.05669896104442    4.91844042281799    0.63127481084370
H         3.82411782367598    4.28833372408233    2.92651308261105
H         5.08148124852752    3.37314453511577    0.49783319108190
H         5.95351851155546    3.83786362632533    1.91028180495860
H         3.00490162526574   -0.35405120164848    0.54442016722933
H         1.33292666124395    0.82468586053573   -2.69153181858118
H         0.18765346528324    1.32954936230139   -1.48026341171953
H        -0.04862379850409   -0.22478763826488   -2.18526640355031
H         1.16710766106695   -1.66057197445072    0.67014634553471
