39
 energy: -52.255918051299 gnorm: 0.106825193901 xtb: 6.4.1 (79825abcba525fcdf90b791dcacef51065a7a4e7)
C         4.14418327806504    1.91696393648446    3.95157524111781
C         3.78149563490778    2.20223915814096    2.48830244482579
N         4.74101170204479    1.47873228414468    1.67224823544336
C         4.68743878460905    1.09710981128358    0.35718289956129
N         5.74439014684243    0.58823673612270   -0.20331543067305
C         5.47807222466349    0.15673667115633   -1.57432892484857
C         4.10186567347457    0.72025672259847   -1.89896752162637
C         3.48439167019992    1.23139045799280   -0.59655585663666
C         3.02035333700695    2.71723577692856   -0.61795967546594
N         2.06621336967738    3.15513682528332    0.42157931409581
C         2.63172511435095    4.17670192122415    1.29626279870632
C         3.77404373446239    3.74130701426121    2.25777916520927
N         5.00530514781362    4.32649254001420    1.67499415044419
N         2.39094706206553    0.32976058187964   -0.20941324564931
C         1.25664159123163   -0.11376352325712   -0.83419003456918
C         1.00913481368596    0.11630774661844   -2.30416963536690
N         0.44645609310842   -0.88272732270923   -0.18684845901352
H         3.41877874939536    2.53199462723950    4.49080021391893
H         5.19681881690480    2.18841974177714    4.07360306630693
H         3.95260800332612    0.85997305850505    4.16106784070534
H         2.76367128496202    1.87889386066652    2.25717777548471
H         5.71651437304304    1.27366356286889    1.88040952444663
H         5.46073597039477   -0.93511937253333   -1.67614274193288
H         6.28755594373577    0.61945244263963   -2.14324870209154
H         3.54538523184041   -0.00171069806069   -2.50859840980421
H         4.19352617607016    1.65980257003683   -2.45868900953820
H         2.62620249647340    2.92564369231307   -1.61897322023695
H         3.92265197051326    3.33887224657411   -0.55703387080023
H         1.75551439679940    2.32922977725391    0.93050742942858
H         1.77274097975309    4.64493461018332    1.79581666718991
H         3.14539413087926    4.85979014335240    0.60780395364705
H         3.66809000000619    4.21023056930506    3.24551637255703
H         5.20111293483204    3.79853689884089    0.82100362525338
H         5.84096362529199    4.16580546521948    2.23377843521550
H         2.64397241442195   -0.31525832306161    0.53235787910678
H         1.20512076863388   -0.85523116262491   -2.75010806304449
H         1.67231379695958    0.84542366864202   -2.77861274465467
H        -0.02001696359732    0.39375956959191   -2.55372036440676
H         0.58890711788149   -0.85016278171138    0.82392952879515
