39
 energy: -52.265578579967 gnorm: 0.114686170575 xtb: 6.4.1 (79825abcba525fcdf90b791dcacef51065a7a4e7)
C         3.77212603731460    1.73689990813530    3.76710327363801
C         3.75017436014200    2.15145320008447    2.29002668462712
N         4.72493611877732    1.32939339790784    1.59422861003976
C         4.66655538618254    1.05829034336839    0.25221615020049
N         5.79624065682804    0.81930399626264   -0.34523936212093
C         5.60955360710666    0.75332749637459   -1.79354547379436
C         4.10412997387386    0.64368713893295   -1.98993339274270
C         3.45923335591157    1.15443523448717   -0.70072715811321
C         2.98934804155313    2.62413819201087   -0.90738393238524
N         2.30946748455556    3.34225729595068    0.19027224744554
C         3.15521197742338    4.27505652538781    0.92720631433832
C         3.78297437910478    3.70626291670586    2.23156917416518
N         5.14696275761879    4.25036615224100    2.43546255785505
N         2.36560418439640    0.37956875551730   -0.09906769256549
C         1.28090695594310   -0.28867253020893   -0.59966140724747
C         0.83223728316554   -0.16935483000577   -2.03475416686773
N         0.44026783137844   -0.84054724428763    0.20997872301279
H         2.76915280996552    1.91756839899076    4.16288307719695
H         4.41557169964843    2.34099583257675    4.41337443455583
H         4.01452367010505    0.67649294746897    3.88792717708351
H         2.77537201085781    1.84901517801041    1.89986155230451
H         5.67886861355175    1.48497750926826    1.91484698946288
H         6.19640920970977   -0.10078819674526   -2.15257625703983
H         6.00905491812503    1.65735196252845   -2.25849488663910
H         3.68676558855673   -0.36541586221412   -2.09030954771338
H         3.89211013837049    1.30162591482655   -2.84234194356667
H         2.18563224406443    2.46860463811459   -1.63585294391171
H         3.80903244224293    3.13424824390011   -1.42910406091400
H         1.63031110790464    2.83757542950033    0.75746441218756
H         2.51687907451281    5.11037890494470    1.24566712694023
H         3.93533203118930    4.63937533604822    0.24667309782074
H         3.15810540687812    3.97546723308086    3.09401226746065
H         5.78897122232458    3.94927412571564    1.69820657304398
H         5.46983405651818    3.86561767134393    3.32096130765195
H         2.48295770905222    0.12659452221622    0.87690761462547
H         1.27433538601766   -0.92821032744570   -2.67494712392797
H         0.98394825305868    0.85202604863074   -2.39569396754265
H        -0.23849208708545   -0.39706134068727   -2.04459423937636
H         0.66178491563562   -0.87399759014551    1.20639035321554
