39
 energy: -52.260008957933 gnorm: 0.119691637160 xtb: 6.4.1 (79825abcba525fcdf90b791dcacef51065a7a4e7)
C         3.72660482321511    1.54220982583304    3.69439021163101
C         3.57176841718919    2.06002713969286    2.25842973853406
N         4.61198225297759    1.32235987976539    1.56281492303627
C         4.69491684751271    1.24948387398443    0.19690365967544
N         5.82776166018409    1.13979457745657   -0.43149690390626
C         5.61189227615185    0.83602879671140   -1.84497569933856
C         4.12256732965713    0.53877017296347   -1.94714247064357
C         3.44445057361959    1.07986943856045   -0.68770718561273
C         2.97631604614140    2.50131200974530   -1.11651612486697
N         2.43203387810351    3.37022604724300   -0.05278352938893
C         3.39161831928059    4.13924495003513    0.73224997447510
C         3.70518541620910    3.60740934146743    2.15976559235366
N         4.87346362910668    4.29357673859107    2.76175019249686
N         2.46178718558855    0.25573242530344    0.02895716791112
C         1.25703368133851   -0.18117344579541   -0.45207384897464
C         0.70469643359900    0.31397317188904   -1.76538486420450
N         0.55913668973081   -0.96103241371220    0.30391343095339
H         3.18200060457218    2.11473681313626    4.44994109921560
H         4.79131011991847    1.62916757898040    3.92989308453284
H         3.44534668066098    0.50176007915793    3.88459045574009
H         2.57256085375468    1.76604382601648    1.92813401697121
H         5.50388638047608    1.49587553868598    2.02258564268914
H         6.16723393370195   -0.02515377747530   -2.23584196227529
H         5.94325432044152    1.75155141623096   -2.34000803899133
H         3.99589821269667   -0.54760396264969   -1.86774823650430
H         3.60619467588429    0.81595628635847   -2.87502356106761
H         2.27954055670189    2.49956211391755   -1.96228069887289
H         3.91057988265017    2.98873904530398   -1.42286993108696
H         1.85877523564031    2.80808907596904    0.57414603996278
H         2.93018528621258    5.12801657113393    0.85897763888494
H         4.34368298311569    4.01212040822227    0.20135150543019
H         2.84395527271938    3.95381612054055    2.74715411232499
H         5.55004854513768    4.47611280420893    2.01657162274944
H         5.39386425072539    3.71704614406000    3.41991504287781
H         2.70261089207340   -0.27364087991135    0.86086068062920
H        -0.26777754333989   -0.11531357760825   -1.99158538439823
H         1.35280812557750    0.18094764852699   -2.63645782425175
H         0.51690459268620    1.34616339100788   -1.45277320580606
H         1.12095168946530   -1.31862015547322    1.07820007062983
