39
 energy: -52.267135823409 gnorm: 0.105278842913 xtb: 6.4.1 (79825abcba525fcdf90b791dcacef51065a7a4e7)
C         3.56857895205270    1.39170751351990    3.66158598096281
C         3.63952888371414    1.98111158449805    2.24678546635115
N         4.85225579148157    1.54517544211980    1.57646398425941
C         4.91076270092100    1.23968381295247    0.24186501540426
N         6.04358102624419    0.92283214613321   -0.31183527813078
C         5.79671588093768    0.74314270132387   -1.74136836555921
C         4.29644503950509    0.64073861114954   -1.97714441255289
C         3.67641448332194    1.15417126590439   -0.67685329009834
C         3.09525959912263    2.57134809403114   -0.95505254660609
N         2.18257027175580    3.18047315611329    0.03426365426451
C         2.56490850493247    4.07209766002769    1.12389348861114
C         3.58009525428871    3.53444877450519    2.17237038895677
N         4.87897493806946    4.13890947540838    1.79076329579837
N         2.69518349078283    0.19572619283559   -0.15053998890868
C         1.35594141293971    0.02233288213103   -0.37431210700217
C         0.62546948764595    0.69160109679441   -1.51164373459669
N         0.70365022263812   -0.84888764396518    0.32012865161335
H         2.57975488321754    1.43734407660716    4.12567898002213
H         4.28438270909489    1.84005486580757    4.35673362750228
H         3.80116344076241    0.32238148635741    3.64533011958663
H         2.83184017068287    1.67177340557488    1.57903847829572
H         5.68453835670079    1.37613548926895    2.13835452407771
H         6.29940239749947   -0.19165870335304   -2.01753646706707
H         6.12519955947983    1.68124628635912   -2.19424763022330
H         3.82430901316234   -0.34233997387217   -2.09204149868925
H         3.92406428689814    1.22620469411184   -2.82743743451842
H         2.54925651870454    2.50580509823788   -1.90289304281229
H         3.95068475637223    3.22454129798469   -1.16923263246180
H         1.57850792924877    2.45262252826125    0.41242535908624
H         1.65606870818882    4.44757387698518    1.61346216768230
H         3.13925875132277    4.85849218166187    0.61778440425015
H         3.42151557216579    3.92652822058360    3.18620788879318
H         5.28192177134342    3.67163142967522    0.97488172171837
H         5.54956654071908    3.99647924413685    2.54336268257498
H         2.93836873305064   -0.35982927950307    0.66341004556593
H         1.30234146717008    0.80283579372668   -2.35463281339972
H         0.25229362505859    1.65576442435320   -1.15437421421481
H        -0.12179179891025   -0.04137319010202   -1.83220220068367
H         1.11605284424236   -1.32050063620441    1.12668313867932
