39
 energy: -52.269037997095 gnorm: 0.116967839811 xtb: 6.4.1 (79825abcba525fcdf90b791dcacef51065a7a4e7)
C         3.96959372883721    1.74084702070259    3.83895783903084
C         3.68763982122804    2.08415052352641    2.37037476376445
N         4.81212279314269    1.56489757456426    1.61143328140480
C         4.77355830170155    1.14522181066065    0.30748250580575
N         5.84476463433836    0.72061823212857   -0.29458489023886
C         5.54480533413212    0.45579342835844   -1.70053217936516
C         4.02975627147283    0.47704778146016   -1.84566702450909
C         3.52544660054594    1.19827702609371   -0.59494399332274
C         2.99080455217480    2.64194902682468   -0.82623390990134
N         2.02096050425097    3.22852232195225    0.12145590912225
C         2.66987758027385    4.11808486520585    1.07856357008560
C         3.62924897764607    3.63008571892844    2.20125570156287
N         4.94042646257886    4.16293643407094    1.75970291888659
N         2.44464828391860    0.47491819423863    0.08847679669485
C         1.44315638621739   -0.12305897592213   -0.62786522816233
C         0.91479881898518    0.70552424751587   -1.77212069754007
N         0.90591794476649   -1.27726511820014   -0.41352895695034
H         3.12654929330639    2.06500035092693    4.45494383410897
H         4.78215972570714    2.29806748446332    4.31420774502811
H         4.13671992950441    0.66274032105659    3.92597925775543
H         2.74579531968473    1.58034025543120    2.14006770009908
H         5.57476722517510    1.19850603966890    2.17810820016888
H         6.03036958059668   -0.50420604570739   -1.91370954543123
H         5.93564251694519    1.26878045818679   -2.31643628787295
H         3.72780645766014   -0.57713457810092   -1.83654984555834
H         3.68379841715101    0.92095032659971   -2.78784528141880
H         2.58220800617695    2.75182135233058   -1.83707207075702
H         3.83354129936792    3.34485738799736   -0.82510203560963
H         1.41174699077082    2.57108250702852    0.60549713312256
H         1.82636785098843    4.51663979254788    1.65847301949614
H         3.12106048920272    4.99129023830736    0.59031434119766
H         3.25432155720617    4.12279904766592    3.10867142032901
H         5.36384524466852    3.45577279892994    1.15388628511263
H         5.50458539001725    4.29782652639144    2.59631195084551
H         2.83365924460117   -0.21290038015878    0.72555741262848
H         1.68162124582178    0.83466206265030   -2.53137442356418
H         0.66409634299281    1.69267598301840   -1.37313149195872
H         0.03327930142168    0.24806701361729   -2.23262551799768
H         1.26533833292094   -1.87158740938564    0.33521858678944
