39
 energy: -52.256033558712 gnorm: 0.123626899848 xtb: 6.4.1 (79825abcba525fcdf90b791dcacef51065a7a4e7)
C         4.16249160056776    1.40665265723814    3.50850084379558
C         3.68027123557747    2.01997147831050    2.18736681765695
N         4.82317663181381    1.88327691129235    1.30127447458785
C         4.87788971081304    1.19619951552586    0.11686163509989
N         5.93727308173888    0.77729901636524   -0.50962509808285
C         5.59263390370787    0.24755720643946   -1.82772714237898
C         4.09371078954950    0.44532951243492   -2.00380995664467
C         3.60429951782970    1.17236333040045   -0.75053167952376
C         3.18468667755199    2.62183648237969   -1.13325698795425
N         2.48090488189558    3.50616524966695   -0.18171322976825
C         3.28984050858918    4.11439755270157    0.86907056876449
C         3.26587378367266    3.51547909016557    2.30423486607377
N         4.12146494782169    4.42152714549145    3.10743212211031
N         2.57563004667442    0.29441367443971   -0.17652778801122
C         1.28317924493819   -0.11667183563847   -0.36169849473477
C         0.53601199522262    0.61715855734401   -1.44717833377906
N         0.66532805968472   -1.02629094316489    0.31477025233431
H         3.79916207844899    2.04664364239597    4.31698167277592
H         5.23953830244465    1.44411168414072    3.69608508105674
H         3.69348171084618    0.42893483291501    3.65653980351271
H         2.87420261447708    1.44247033821259    1.72836461167194
H         5.72619525292398    2.12418492926981    1.70563874842696
H         5.98439422290078   -0.75838705797289   -2.02115984148782
H         6.18404434411285    0.77230664604697   -2.58132597966957
H         3.69145587450757   -0.57378670263439   -2.05018232344227
H         3.88783781221877    0.86994768794842   -2.99464389921132
H         2.53836888467910    2.44538617518027   -2.00041064617323
H         4.12302550724294    3.11758377340488   -1.41261616024289
H         1.61870368732592    3.17759753424646    0.24993069982462
H         2.81783982991487    5.10586822569558    0.89824127543016
H         4.34661345781001    4.28064322660579    0.62405165865734
H         2.24838869134130    3.55377572660575    2.71654269515798
H         4.95908907426381    4.56685903191154    2.53853658449107
H         4.44363798520348    3.88339034021477    3.90930406908005
H         3.03841644529431   -0.31272885237360    0.49242835558190
H        -0.35768013885485    0.07644686686716   -1.74735271644584
H         1.12917220089324    0.87282361977670   -2.32996313378823
H         0.06930542273202    1.47583355579777   -0.95395354702795
H         1.16475823501444   -1.31848661501686    1.15632599749863
