39
 energy: -52.265479725184 gnorm: 0.111689946923 xtb: 6.4.1 (79825abcba525fcdf90b791dcacef51065a7a4e7)
C         4.01941622657178    1.58140030975347    3.74993646268195
C         3.66651836526905    1.98812978397348    2.31322988678764
N         4.75308671925487    1.58055096413216    1.43954432546264
C         4.82423289176141    1.15361760468184    0.13932560557744
N         5.88935358147271    0.84160539828603   -0.53774355876605
C         5.58931418800304    0.55690549576892   -1.93978416665718
C         4.07411671989404    0.55071642775053   -2.08479406098798
C         3.57659714573557    1.14238846913352   -0.76524623596521
C         2.98379960830317    2.54843228009940   -1.07372298372346
N         2.36214852927610    3.09000553404752    0.15225828771319
C         3.28033414405378    3.96921987198230    0.86807062899856
C         3.45149376462013    3.52902043764004    2.34992862783361
N         4.55666596861067    4.35014542555644    2.89986798556810
N         2.59914139431866    0.23815336270221   -0.14445956969204
C         1.28290851445973   -0.02811841381444   -0.40967443573978
C         0.74215378031935    0.43873028382890   -1.73808289881810
N         0.49443021707451   -0.76896242005303    0.29474668449687
H         3.32954746122289    2.01040517495323    4.48156065587483
H         5.04532862807368    1.93219119984051    3.89509195578740
H         4.06728440325385    0.48933053554209    3.80388269700950
H         2.71656868428414    1.55159677054199    1.99546939801433
H         5.68486589356552    1.92296283360073    1.66654969993038
H         6.06558747541824   -0.39475063006217   -2.20498332313880
H         5.92491588368253    1.43996005393452   -2.48807755517734
H         3.62133121426610   -0.44167165849548   -2.19752578088536
H         3.80502177750800    1.08833482474041   -3.00293922947681
H         2.19283480867639    2.51935792345246   -1.83157932055765
H         3.80688140144247    3.13629035578862   -1.49945285855471
H         1.38163804678097    3.36614364865745    0.15558467611863
H         2.98547709818938    5.02273782845477    0.76903073224731
H         4.25401202133672    3.98748181103633    0.36204804922308
H         2.52677380069150    3.64428211700244    2.93160553196579
H         5.43172622434557    4.17485286005200    2.39994826129872
H         4.83287168626379    4.01111078189106    3.81918904850042
H         2.91679668786606   -0.21702346390662    0.70536675862153
H         1.50618287442290    0.33566756800051   -2.50410969001932
H         0.43838675519664    1.48825518601938   -1.68577864178239
H        -0.12941184672156   -0.19790679671167   -1.92104479412541
H         0.87679989181177   -0.88120335481756    1.23507656784573
