39
 energy: -52.265156261517 gnorm: 0.112464617427 xtb: 6.4.1 (79825abcba525fcdf90b791dcacef51065a7a4e7)
C         3.75028104502229    1.66739989338033    3.86780805475157
C         3.61672194833440    2.10874046989762    2.40443114226579
N         4.53646165121790    1.40160099403664    1.53029707482580
C         4.64335016060210    1.32377629515825    0.16632465927001
N         5.79837597501257    1.03761509896769   -0.35739615284885
C         5.58108727819755    0.75065935516802   -1.77416626976293
C         4.08128252883385    0.61982544729388   -1.99857156323770
C         3.41919593861341    1.23686104008439   -0.76580378385061
C         2.76133332029744    2.60681000749304   -1.10341685302946
N         2.31372811441407    3.39884452799609    0.06067618610409
C         3.45451837025906    4.05208789404462    0.69340098234264
C         3.64912365707803    3.64879846361171    2.18285077458497
N         4.92676975505464    4.22741850297299    2.66337593358146
N         2.54405902510358    0.28583762754197   -0.06714306520397
C         1.37055960243519   -0.25833203047647   -0.51490088036421
C         0.68691594402915    0.28258796721656   -1.74578240614068
N         0.81389914763025   -1.27355849799806    0.05623950194395
H         3.07586718644054    0.91771413425407    4.29015299538220
H         3.53829487509714    2.48242021702158    4.56596588037005
H         4.71877927076251    1.21002270697956    4.09283080568740
H         2.64687209389149    1.69867974410468    2.11257731695467
H         5.45963909441201    1.18669579674401    1.90251867655958
H         6.17559839555891   -0.13375638182041   -2.03336031457232
H         5.98993827166096    1.57131509488791   -2.36780295144196
H         3.85423789861369   -0.45299443174980   -2.00666525039601
H         3.72582601260244    1.09855934419545   -2.91992963530520
H         1.95515910874684    2.54903959333572   -1.84339155823128
H         3.52536786585539    3.23594662818640   -1.57746853785372
H         1.72985060969950    2.82121141074269    0.66324665311366
H         3.22652917755482    5.12000039901972    0.81270509732709
H         4.33006023848723    3.93822463038477    0.04155549121711
H         2.81741015401390    4.06409325886551    2.76810555589660
H         5.77701004344202    3.81917751514217    2.26738551857948
H         5.08168953721348    4.44311343545576    3.64615813574025
H         3.16438029879802   -0.26966339574251    0.51330137556916
H         0.51901929950280    1.35499511047790   -1.69180966303210
H        -0.19801389464509   -0.32702125510328   -1.95020460820479
H         1.37976483865624    0.25003746229296   -2.59272357309676
H         1.24386405629713   -1.52884087670162    0.94673709799301
