39
 energy: -52.263384312532 gnorm: 0.129251752307 xtb: 6.4.1 (79825abcba525fcdf90b791dcacef51065a7a4e7)
C         3.66496269027441    1.64651494203450    3.83425102322157
C         3.56715034321790    2.15786418446832    2.39097480618519
N         4.54038210025886    1.38114271147259    1.64290967488772
C         4.63552653889008    1.25766590496592    0.28143855881557
N         5.79548281127747    1.20043287709763   -0.30292619616354
C         5.51955050012617    0.87112826048816   -1.70014320518665
C         4.03146609897768    0.62129352590422   -1.90033549438567
C         3.39655762724670    1.19515081786052   -0.63290225875453
C         2.78463685032646    2.56552295650504   -1.04661611619760
N         2.40329477937426    3.33723319705126    0.15414332806158
C         3.41022877017173    4.16787339067064    0.80574963020527
C         3.81919917354939    3.68472951897594    2.22641478382229
N         5.13224479255544    4.33782386208407    2.44427737885336
N         2.38416434403648    0.34100694791760    0.00265655454437
C         1.36806689814893   -0.34901627873151   -0.60159709526284
C         0.97846014955954   -0.03542663790107   -2.02458709254557
N         0.62150966548221   -1.25921555744250   -0.07155319415847
H         2.97624147163957    0.80735022953071    3.96349387617270
H         3.40405578379605    2.45157068644520    4.52738409301714
H         4.67699477536543    1.31939759378441    4.09232707107935
H         2.53376649966646    2.10332927044752    2.04014583312752
H         5.49096168245621    1.30726975027808    2.00058411239517
H         6.07694452077923   -0.02265162522791   -2.00557018651466
H         6.00114407607721    1.65992065794453   -2.28230612644581
H         3.94081779148818   -0.46939236200781   -1.96921536841315
H         3.68618906871728    1.11489771936466   -2.81770938018218
H         1.86871761132910    2.30937755845381   -1.59094905145863
H         3.50214439555182    3.17803531563478   -1.60723916394775
H         1.56732024211314    2.99966752024071    0.62833749579142
H         3.01773685835309    5.18435362869285    0.94491746197477
H         4.26976394375738    4.16565954897358    0.12337485228815
H         3.13031584027177    4.21547443610208    2.89760020336389
H         5.71081837640542    3.63496704836405    1.97777703141177
H         5.52901721347594    4.21438246967662    3.37364230728250
H         2.59627830026247    0.08585095297335    0.96192642613011
H         1.75470849049677    0.51271236351153   -2.55197837832458
H         0.09565000812786    0.61003505602758   -2.00138979464163
H         0.74473651039841   -0.96463997804501   -2.55406257943766
H         0.87492746159664   -1.51293525063117    0.88470546280423
