39
 energy: -52.265375107576 gnorm: 0.117508996863 xtb: 6.4.1 (79825abcba525fcdf90b791dcacef51065a7a4e7)
C         3.57198210064639    1.50638872388869    3.72240816031618
C         3.58694458355096    1.85861614377623    2.22915549752044
N         4.71697416871552    1.32595961742329    1.48794843401581
C         4.88317637674005    1.25944171806375    0.12932604502372
N         6.03592838166321    1.24045030751442   -0.47155538238366
C         5.72534019188558    0.87559929637364   -1.85257466651093
C         4.26462800422192    0.46123999192553   -1.95988643262640
C         3.62044855416020    1.12965475030989   -0.74454181600192
C         3.01921066485941    2.49990119622327   -1.17403412611407
N         2.38110035191284    3.44126359486340   -0.23093617112124
C         3.24162949136438    4.11125309663358    0.73812194306858
C         3.50326933020129    3.40724816462014    2.10006757924797
N         4.75305764757110    4.04477820554877    2.57930629796202
N         2.66661218634971    0.17644807972536   -0.16142078072778
C         1.30831486529013    0.01561738897257   -0.21499712607187
C         0.47542862973232    0.56825499373725   -1.34456545479568
N         0.69278959713692   -0.81768903370513    0.55538331470336
H         2.59764186151450    1.88605312108682    4.04139733764331
H         4.38110016571846    2.06862800143848    4.19762976220318
H         3.62681587152370    0.42620485763489    3.88978205718362
H         2.63437651914867    1.49020557192921    1.84079364187367
H         5.57899203335237    1.24516771100786    2.02403389776077
H         6.42568995450376    0.08167308803080   -2.13894437022229
H         5.95258866924300    1.72979284528532   -2.49425293578325
H         4.14704650680653   -0.62277667133783   -1.84309715283027
H         3.84061360395976    0.74734766906398   -2.93086035867371
H         2.29915495025016    2.43229772989083   -1.99729980896027
H         3.79867438404574    3.16284842780552   -1.57054887513264
H         1.50996695684624    3.02001790944289    0.08740767201631
H         2.73141494757362    5.02724029334468    1.06568603791386
H         4.18415748325816    4.24363078252949    0.19171725305249
H         2.61331093583859    3.74818875122003    2.64639518948350
H         5.53616817205250    3.71055497446162    2.01237561140413
H         4.86845029824246    3.95555979854807    3.58683293079254
H         3.09770875782836   -0.34495586660851    0.59527551251200
H         0.97258633154136    0.20291223304921   -2.23928234402896
H         0.41098380243206    1.65990492465933   -1.31887601441762
H        -0.55721313680441    0.20690492100906   -1.38310851393529
H         1.43179200349922   -1.15714687695160    1.17317673083026
