39
 energy: -52.259666606890 gnorm: 0.123675683525 xtb: 6.4.1 (79825abcba525fcdf90b791dcacef51065a7a4e7)
C         3.90359163736919    1.73366688082941    3.87037545114780
C         3.69486636451939    2.04220785360902    2.38197773368842
N         4.65860302157322    1.39019634568041    1.51239715236438
C         4.59741297263241    1.22924829507637    0.15289206494485
N         5.69210367579826    1.04374987668909   -0.52349462358158
C         5.41635461248620    0.86809793653695   -1.94824175401828
C         3.92202997377338    0.58166290440586   -1.99111807836266
C         3.33479194313043    1.21818952020936   -0.73064462461985
C         2.75420479692129    2.61859549476869   -1.08463286211546
N         2.53445030275716    3.63597927410531   -0.03610059718240
C         3.69001613675933    4.08775705404616    0.73138517238119
C         3.65667273329649    3.58775055016486    2.20374925263377
N         4.81301705539898    4.21693561642299    2.88571633460645
N         2.29620481483631    0.53917016538286    0.05593433037685
C         1.39262914851661   -0.31823666632475   -0.51161578815683
C         0.74718798535533    0.00890353310023   -1.83502707634079
N         0.96627442783315   -1.40748291541163    0.03475519752652
H         3.14385313465649    2.32522204830627    4.38815720003069
H         4.83995688944657    2.02141657709409    4.35724385178748
H         3.70242845204631    0.66967841474919    4.02937188046889
H         2.69106975491920    1.72994415873153    2.08394930125781
H         5.56545965566666    1.70741836669852    1.84999305068059
H         6.05204166595107    0.03177291901581   -2.26332690506402
H         5.79372635440418    1.69056417388681   -2.55994375624157
H         3.79467551624987   -0.49775418764436   -1.84552670056901
H         3.50349179835376    0.92088744687591   -2.94725022145778
H         1.74540652477457    2.62302839459825   -1.51256188286110
H         3.47346098878475    3.03288689945122   -1.80249067583698
H         1.78274768071052    3.36245084473952    0.59460495328908
H         3.68424774837765    5.18521130992755    0.77840156282938
H         4.57678526144981    3.56628753152813    0.34908815269644
H         2.77595424618622    3.91033549965288    2.77560078886496
H         5.61815078818364    3.63870342262655    2.63315967203537
H         4.74429015108858    4.19280483595784    3.90113724330859
H         2.55643633777124    0.13666218427441    0.95067591343146
H         1.14052623722429    0.87825588561051   -2.35528752160575
H        -0.33673667151630    0.14157906564294   -1.77164567811166
H         1.03116735293363   -0.77804414341888   -2.54105649786844
H         1.47577845793794   -1.48854005620415    0.91615197161323
