39
 energy: -52.263908981742 gnorm: 0.119432978901 xtb: 6.4.1 (79825abcba525fcdf90b791dcacef51065a7a4e7)
C         3.54505951284165    1.47905468465271    3.67073356921607
C         3.61835596344060    1.91726983725055    2.20216737075252
N         4.77833920914308    1.31712853384168    1.56628445111105
C         4.76280862939323    1.35231557351424    0.19645842973287
N         5.92105966085317    1.22329228163366   -0.37979145608073
C         5.73726893087876    0.94009230096080   -1.80204821440321
C         4.26076227574553    0.62113051368631   -1.98934746184333
C         3.55356518553940    1.13117061664590   -0.73294810640552
C         2.94403707909968    2.53995704512547   -0.99241353624939
N         2.16682230551912    3.23206864963592    0.05625248904073
C         2.97348272520307    4.10639444069236    0.90083720845071
C         3.66870368413350    3.47141609514916    2.13875667163080
N         4.98773623381507    4.11158429736918    2.35880882342327
N         2.59189040019164    0.28643068692415   -0.01181497212711
C         1.35216294909732   -0.15977550710813   -0.38287350219595
C         0.64353965267230    0.39208805634348   -1.59462101798912
N         0.67745868927675   -1.01571103245884    0.30915648933925
H         2.52411285060486    1.60979659111628    4.03926107024843
H         4.29289886678621    2.02585988629711    4.25242162586982
H         3.79637457308841    0.41655254906021    3.74654851647452
H         2.74019839596218    1.64520101143374    1.61161249995824
H         5.70504378764333    1.69627629283394    1.75190606697500
H         6.48101818185480    0.16318534761222   -2.01668477707732
H         5.96525671735884    1.80853749402040   -2.42403214053752
H         4.05348751170868   -0.45493374030686   -2.03033720628213
H         3.87808475335317    1.12285210219724   -2.88727259217175
H         2.34362448542130    2.34523691481696   -1.88818451951259
H         3.77618280501716    3.13677067380522   -1.38691786123685
H         1.43928909869543    2.64940412043743    0.46718022273975
H         2.41465946270358    4.99513906163246    1.22410060000566
H         3.68215567135433    4.47363679965512    0.14760639281487
H         3.17978309992867    3.82767486364758    3.05569540662680
H         5.79854590099976    4.03996167752216    1.73926419497888
H         5.33564074243843    3.91771575901312    3.29569875663617
H         3.01811978319485   -0.18764063441931    0.77804609278605
H         1.25904946805456    0.32773152510590   -2.48802200460785
H         0.29495596688664    1.41603629306668   -1.43173432370196
H        -0.24044573374769   -0.23817037154075   -1.73516501850739
H         1.19749253988916   -1.21263690860471    1.16578352528107
