39
 energy: -52.264627280035 gnorm: 0.118485920127 xtb: 6.4.1 (79825abcba525fcdf90b791dcacef51065a7a4e7)
C         3.95090096232456    1.37183678652880    3.56584169893863
C         3.67494870903831    2.02344558391259    2.20446450073770
N         4.81379134298549    1.62063160597272    1.39770796897406
C         4.78705450918921    1.21463993262459    0.08913680473652
N         5.87783728351653    1.21850574004869   -0.61827704772297
C         5.63210763693394    0.56671522988388   -1.90341579906376
C         4.14290301073008    0.31248142954668   -2.08922292269298
C         3.58550906837146    1.02737222254797   -0.85753664449831
C         3.17644695121199    2.50184513016305   -1.14410916842301
N         2.47485074634411    3.30844388686393   -0.12433325883983
C         3.35293006612828    4.01749649435284    0.80016177644952
C         3.35435399646686    3.54435713536486    2.28175260608239
N         4.24835920712841    4.40277661429599    3.09535927541254
N         2.59926147056141    0.27649044611139   -0.06891180198599
C         1.29760390153983   -0.06292334533995   -0.32227791720819
C         0.54861203405780    0.58091887918086   -1.46223878152482
N         0.63984977888585   -0.87346597315549    0.43741749862367
H         3.21130652197754    1.77882631449742    4.26053417491284
H         4.92616814216874    1.73324730383551    3.90474726949186
H         3.99732214593032    0.27885608911439    3.59834116497813
H         2.76096877879547    1.67735293169111    1.71579511787053
H         5.63050952362534    2.14233842758473    1.71041095966580
H         6.19524886118313   -0.37433560907728   -1.89285654769854
H         6.11166974625482    1.11833963269812   -2.71506238821457
H         3.82992817368523   -0.73737832518359   -2.13819739040660
H         3.79001085277522    0.86643346211680   -2.96845011028771
H         2.60623348289924    2.51203417827312   -2.07982794917250
H         4.04868682737516    3.10078890409577   -1.43522877417643
H         1.69467772772988    2.82812229318964    0.32095917250708
H         3.13109533312032    5.08998955113414    0.71532279530483
H         4.37461838085124    3.93625305134126    0.40774179448584
H         2.41345829099034    3.60917329935415    2.84500602608145
H         5.21115484146235    4.45085707564392    2.75317438794887
H         4.19474044948585    4.36115806575816    4.11112412290680
H         3.01408762022820   -0.39016185044255    0.57435298326575
H         0.93337264961274    0.38410852509865   -2.45942701140557
H         0.40946360839741    1.65218453358642   -1.29036596309780
H        -0.43530475938042    0.10637383340473   -1.53381534637558
H         1.19758317166889   -1.31612948141503    1.16954273457812
