39
 energy: -52.267205691559 gnorm: 0.127441288903 xtb: 6.4.1 (79825abcba525fcdf90b791dcacef51065a7a4e7)
C         3.93823193916273    1.36685681787600    3.60936745110891
C         3.75239698603259    2.01498546749105    2.23114897624780
N         4.85709994218928    1.52907235115113    1.42269516918276
C         4.83273619784992    1.28185486934697    0.07503330168247
N         5.97040704804648    0.95380074111841   -0.46194143752148
C         5.56746731185939    0.49659512668471   -1.79062429496911
C         4.05909104717299    0.52567587143426   -1.99272546854637
C         3.51416305416760    1.16294446262036   -0.71376097287536
C         2.99518295458607    2.59425821974289   -1.03860951558706
N         2.35135151300095    3.39181857191137    0.02542067988869
C         3.22755056495551    4.18383409590054    0.88184148130493
C         3.55751227373655    3.55856850457843    2.26717265688214
N         4.67212380946100    4.31442813426684    2.88717464921956
N         2.48885121939474    0.40889242310278    0.02011781784804
C         1.30909352534319   -0.06957939724817   -0.48281861851649
C         0.58239681353095    0.30530359560485   -1.75025975766112
N         0.62343307070961   -0.83448166772719    0.29919879651524
H         3.13912274931577    1.66591392048729    4.29290779260765
H         4.90356444623201    1.70846464993799    3.99415032335290
H         3.97939885880397    0.27643670572495    3.52506317668103
H         2.82828935320505    1.55263902697219    1.87590533279179
H         5.79519337508586    1.72631409455052    1.76630273072358
H         6.00378630761785   -0.50465433742490   -1.89033117633278
H         6.09155281624333    1.05054162485470   -2.57261991340424
H         3.69551027557827   -0.49098782085313   -2.18445760506655
H         3.77571255453101    1.11647489960194   -2.87311703634713
H         2.13686574006624    2.40270917166138   -1.69238117737007
H         3.79527322971802    3.15911449613488   -1.53366467152614
H         1.54873049613915    3.92698760622917   -0.30177609507678
H         2.75478331472802    5.16493602230061    1.02529807158754
H         4.19938810995053    4.22222296880062    0.37341348018895
H         2.70289845453554    3.79292428000580    2.91636667032104
H         5.52740748044953    3.90931468073016    2.49890850926156
H         4.62689143558640    4.20851777999076    3.89866974634536
H         2.87923641194925   -0.21152127126301    0.72224448770756
H         1.20465296480606    0.56395199428066   -2.60293654502763
H        -0.14730968085152    1.06045883564492   -1.44402185091759
H         0.04223975214375   -0.62334162230275   -1.96063294614209
H         1.18377909225540   -1.17438985434583    1.08246097824870
