39
 energy: -52.266339941688 gnorm: 0.112143769565 xtb: 6.4.1 (79825abcba525fcdf90b791dcacef51065a7a4e7)
C         3.79886477185600    1.34547937363354    3.41776833651585
C         3.68271679117262    2.06612513757182    2.06822363946754
N         4.86918456901924    1.89760463423614    1.24726515589034
C         4.83411850757020    1.33222102335423   -0.00053866646518
N         5.87934470862205    0.81578466157803   -0.57590989642052
C         5.58196839955846    0.32788213883285   -1.92138899446147
C         4.13261969002304    0.73210677476083   -2.15134615944676
C         3.53788254352042    1.20570117919993   -0.82439324055355
C         2.91867086482596    2.62781162858616   -0.95745253019674
N         2.20746751266966    3.40590467800830    0.07770093472031
C         3.04024668059261    4.18603896706355    0.98673301225285
C         3.43649752348197    3.57465987174066    2.36084187041601
N         4.57909523841064    4.28203938507576    2.98707651715744
N         2.72379382937308    0.18433207205249   -0.15171080121848
C         1.42330449051919   -0.20224142102642   -0.33336154960588
C         0.79173594831349    0.34005368599256   -1.59116504350990
N         0.81117268736716   -0.93150977802296    0.53854400712581
H         2.94464210344273    1.39594701278685    4.09820547465664
H         4.58346264166727    1.80294142796856    4.02748570799011
H         4.06044743370208    0.28278185556770    3.40961689392194
H         2.80421541827125    1.72507102305619    1.51518237682705
H         5.77357683664418    1.97446450768332    1.70895439067829
H         5.78080407788825   -0.75063103096298   -1.93087235490105
H         6.26278908645865    0.73162033221776   -2.67406299421668
H         3.67776561682901   -0.19268791633699   -2.52607248044271
H         3.95637507594839    1.47561122687077   -2.93911208055929
H         2.27292597744634    2.59716187468852   -1.84226380656206
H         3.83537940963700    3.19026879348463   -1.17556733758545
H         1.42965227476013    2.95835637600666    0.55974667406053
H         2.42022950021737    5.08422894323294    1.11116422678415
H         3.94529331084317    4.45212621927070    0.42590404764891
H         2.60049401025219    3.64149725231654    3.07032843102666
H         5.48864778064011    4.07134043917729    2.56910786750104
H         4.54698936263588    4.14068594182889    3.99473405927022
H         3.18219269210462   -0.17424366940611    0.67990782398337
H         1.57077561500081    0.24144516656055   -2.34251914503717
H         0.47216708622675    1.38156904492791   -1.49301128924519
H        -0.03506747390201   -0.33922703297604   -1.82221109135962
H         1.19127022211096   -1.14823409385631    1.46135564250640
