39
 energy: -52.263089601086 gnorm: 0.121765721763 xtb: 6.4.1 (79825abcba525fcdf90b791dcacef51065a7a4e7)
C         4.08483651839570    1.51509957949990    3.75623960085208
C         3.67133175559988    2.01277949798088    2.36504584710963
N         4.74261977875133    1.62178867592815    1.46529815820548
C         4.68499068500166    1.30892970811579    0.13236876571354
N         5.80286084186264    1.26587786282552   -0.53002780802302
C         5.55795493897801    0.78478961637203   -1.88847204356834
C         4.07683239886848    0.44382252624540   -1.97158041583344
C         3.42999140652169    1.04031304552059   -0.72073918867968
C         3.07833543414222    2.52318485089453   -1.03847381966468
N         2.39075125600385    3.40050039024718   -0.06876914938332
C         3.33811342052263    4.04895843741958    0.83149584547225
C         3.45946423255380    3.55319964425028    2.30066958417177
N         4.52687549437961    4.38989991197013    2.89954436302205
N         2.50460864633275    0.14073835415310   -0.01869285589278
C         1.31485637862404   -0.28206523753145   -0.54730919028324
C         0.66619160595114    0.44443592877939   -1.69903072629916
N         0.56385986958617   -1.19336083704163   -0.02548398205760
H         3.32938854993999    1.85189918355595    4.47115389159379
H         5.10927386330335    1.80552845823840    4.00683850632098
H         4.06927966533498    0.42887488265307    3.88925027863966
H         2.72966778931378    1.54601008223250    2.06616044031435
H         5.70314466910007    1.85497109801470    1.71026275803912
H         6.21683070444911   -0.06119581122614   -2.11870583785328
H         5.76140549986052    1.54733940537655   -2.64356487006855
H         3.92773023282135   -0.63983088171833   -2.04917615445850
H         3.65701092966001    0.83180846551070   -2.90841179019561
H         2.48326044939948    2.50099836535058   -1.95837076028853
H         4.02169505814462    3.00486048829958   -1.32543702118839
H         1.59866217901541    3.06627523687822    0.47763048739969
H         2.89365986058046    5.05093567898374    0.75971629131012
H         4.36377771131721    3.99536722584130    0.44473791217057
H         2.65329341975279    3.96128759650054    2.92540402711349
H         5.39310118702387    4.35320832409819    2.35669591190886
H         4.76774664322679    4.11044317723719    3.84837012521173
H         2.98812139127887   -0.28708584296541    0.76455518212613
H         1.27822679530651    0.54712601883721   -2.59123423130537
H         0.46746294189464    1.42917846248397   -1.26624703311524
H        -0.21195473834660   -0.20036340092861   -1.80627482313564
H         0.89652267781291   -1.62745041299450    0.83702780186938
