39
 energy: -52.262876899249 gnorm: 0.123831421275 xtb: 6.4.1 (79825abcba525fcdf90b791dcacef51065a7a4e7)
C         3.60011899484570    1.60426227473395    3.75663018085850
C         3.63801911959058    2.09058973961301    2.30193409489727
N         4.73897585336973    1.44914706114808    1.60442187460478
C         4.72838173223491    1.28463953478544    0.24400737136970
N         5.89079691466961    1.20189977087884   -0.33236179955823
C         5.63516977026700    1.05658757075872   -1.76426077230406
C         4.17407351321178    0.66612420032885   -1.93638171487940
C         3.48049442346329    1.06758328954348   -0.63385086234199
C         2.79404931554656    2.43245532686878   -0.93292184989422
N         2.42483247339523    3.33963630872659    0.17318994821394
C         3.63618650595846    3.98582862495190    0.66667437462143
C         3.76214448962348    3.63685320178552    2.17707995458346
N         5.03439434093144    4.25808239259355    2.61701146660725
N         2.43057430759149    0.19119357736690   -0.09715192186932
C         1.22795754596740   -0.28857449485328   -0.54127363007805
C         0.44099649741573    0.33871002536341   -1.66476768022054
N         0.66887381031711   -1.31102078431109    0.01441149208318
H         2.96901269521372    2.28422351752715    4.33507256388648
H         4.56117778062698    1.71506269021105    4.26722776044842
H         3.08226934227904    0.65335932405480    3.91610825423338
H         2.75632076829425    1.71265549776968    1.77876020887843
H         5.64576904041032    1.43511105584112    2.06758366861799
H         6.37614062460721    0.38472125135401   -2.21412081459179
H         5.85645776230644    2.00513111201199   -2.25856458768123
H         4.07821723932451   -0.42124031969507   -2.04129711903446
H         3.66405814262789    1.13827702246204   -2.78572982770094
H         1.88642717308140    2.16904848907079   -1.48758909386891
H         3.43682643387243    2.97288368018258   -1.63936466485128
H         1.69202012621875    3.94874492163177   -0.18686128827525
H         3.55711327284703    5.08127364761786    0.64674228360471
H         4.47348799504453    3.50561583948618    0.14440734287689
H         2.87375760438178    4.04231259272235    2.68018203303024
H         5.77115958199854    3.78083832197136    2.09185173807410
H         5.26111500349355    3.89928621316590    3.54234834872392
H         2.85360440898991   -0.46937889420581    0.54704150040574
H         1.01930702987346    0.65296115234144   -2.52961598091521
H        -0.12953801437334    1.15775302917101   -1.21736227634282
H        -0.19240580617660   -0.50172557262976   -1.96622746624830
H         1.04143613967018   -1.78425333762547    0.83919821935127
