39
 energy: -52.264189288260 gnorm: 0.121449175975 xtb: 6.4.1 (79825abcba525fcdf90b791dcacef51065a7a4e7)
C         3.68745198091671    1.67031352556670    3.84631902684410
C         3.61807582469824    2.05676015792012    2.36310039627091
N         4.48970528500545    1.15137964824432    1.63465960187815
C         4.73635207042123    1.15418144833513    0.28667586572185
N         5.91434106522551    0.89715244102356   -0.19967214910752
C         5.66378446302308    0.87743156321472   -1.63968188147390
C         4.16876229847488    0.67106476254506   -1.83769959363250
C         3.49415851811108    1.29387944806321   -0.61466255418243
C         3.06622647608075    2.76732182767164   -0.87804005073589
N         2.21687306585013    3.49126149906167    0.09009827823853
C         2.68360131742805    4.14945135029606    1.30559028090640
C         3.87802450819293    3.57124789289609    2.11676736893172
N         5.14415211448302    3.93025737201177    1.43403886249969
N         2.52458116815942    0.36228642448561   -0.02263962909816
C         1.37612718435996   -0.17591308518523   -0.53752146522012
C         0.81703148138645    0.33283215507693   -1.84275045065287
N         0.72767289892127   -1.13834621627932    0.02815201324294
H         2.92397485095116    2.35393562671621    4.22710971439187
H         4.64568013179922    1.83396005089264    4.34795559319651
H         3.45995395996332    0.60652186740582    3.96636031176950
H         2.63426220186959    1.78066823379655    1.97603294347653
H         5.28819963835564    0.76058520291779    2.13132471834290
H         6.34199363892071    0.11871723595963   -2.04858419923961
H         6.01034557425596    1.82043018467941   -2.06827082993747
H         3.95486780040941   -0.40393426422869   -1.80329745574482
H         3.84983478313789    1.06420401220842   -2.81143618493749
H         2.60710229893851    2.88662804130048   -1.86585980432128
H         3.99392853437192    3.33841549518478   -1.01035628317717
H         1.39498747520716    2.92184766294999    0.28487014886670
H         1.73921427495683    4.20745724260531    1.86363874494763
H         2.91342963176327    5.19401490345048    1.05960882157746
H         3.84468810497643    4.14703705285530    3.05169828043756
H         5.30579912378765    3.24322222882452    0.69361288984915
H         5.95575574798091    3.85537982608637    2.04402099184681
H         2.81609213174066   -0.22314152328325    0.75362778019049
H         1.62183418193951    0.11591893338188   -2.54017478099209
H         0.68747949598506    1.40594677208213   -1.67495901679976
H        -0.17039086657726   -0.08096661860565   -2.07117143672064
H         1.09770985351061   -1.54300282548266    0.88974969271865
