39
 energy: -52.265423872250 gnorm: 0.110888155591 xtb: 6.4.1 (79825abcba525fcdf90b791dcacef51065a7a4e7)
C         3.65812919085290    1.29866160426723    3.58418450248782
C         3.62355066202041    2.06481921663243    2.25531341119610
N         4.75392037233892    1.66821013515098    1.43370322493152
C         4.75045641563126    1.42732509615226    0.08467951099808
N         5.82453571172788    1.05531222140468   -0.54636441543700
C         5.55926358980804    0.69926544379153   -1.93908008168503
C         4.04635354402091    0.59987022867715   -2.07366579250864
C         3.50726776349034    1.27897690088153   -0.81390049723375
C         2.78562997071422    2.63012421322088   -1.09168787084487
N         2.44321123408230    3.37949363347335    0.13467936314400
C         3.51393821062905    4.06964017544779    0.84581329475949
C         3.49570384443793    3.61387960822618    2.33273094415931
N         4.65171869224412    4.21484560997979    3.04022983355153
N         2.58935995396340    0.40323977378423   -0.07297764802323
C         1.38853191258527   -0.19081809107335   -0.35371919851956
C         0.94473408091943   -0.20856476633282   -1.79516324965099
N         0.66950785940439   -0.78871272816325    0.53638381867147
H         4.49788280157032    1.67186324720029    4.17644496377321
H         3.68230921288174    0.20953609750090    3.48497980544145
H         2.75795223705675    1.64661568594858    4.10035052225296
H         2.77234043467971    1.69148561597522    1.68085682061527
H         5.69473579070701    1.71884879098581    1.82008622772509
H         6.08092194319280   -0.25748617850447   -2.06283432369559
H         5.96483086745677    1.43153740475710   -2.64074413388740
H         3.68963020299999   -0.43302520341816   -2.16549572835830
H         3.82113599786635    1.19225353083526   -2.96965421541545
H         1.80333966768604    2.39376725228953   -1.51602029968217
H         3.24584769161455    3.28374290571910   -1.84353154820371
H         1.82642912444709    4.12818747108708   -0.17628928358687
H         3.23573133007451    5.11854968326144    0.67540367148178
H         4.50092343581057    3.84008581831747    0.42438012313984
H         2.63156511524997    3.87674066012668    2.95795778913619
H         5.59059480979357    3.91988511883357    2.76114631922060
H         4.48105242700251    4.17741414953421    4.04315416568463
H         3.05644053095061    0.08853115743534    0.77146881652600
H        -0.11920388397724   -0.02164671325610   -1.91456620883735
H         1.16954582048169   -1.18851799937031   -2.22605070462231
H         1.48906363859585    0.58552819272002   -2.31624881964651
H         1.08945260337807   -0.74743041270024    1.46641987439820
