39
 energy: -52.261477651092 gnorm: 0.121198048331 xtb: 6.4.1 (79825abcba525fcdf90b791dcacef51065a7a4e7)
C         3.79234322480705    1.65545907782038    3.79777434455302
C         3.62469366835471    2.14305384749513    2.35270115529327
N         4.57026271264380    1.43636905050455    1.50619448516664
C         4.67004418369748    1.32610358481544    0.14392145749021
N         5.80940959448310    1.23955558668101   -0.47624970742849
C         5.55198814491655    0.92421036204432   -1.88020381346225
C         4.07702510733187    0.56990182604756   -2.00605704564518
C         3.42733434874602    1.15482409847781   -0.75123600690200
C         2.68252975644130    2.50935171621394   -0.93575446158603
N         2.40242542391335    3.41414175826494    0.19812306675545
C         3.61272126748626    3.99816003953600    0.76608133340778
C         3.79218151071070    3.68854357668658    2.27965523363713
N         5.02468032606331    4.30293253623947    2.82879821847175
N         2.52492628352975    0.16495498806582   -0.14769993370425
C         1.27805320117820   -0.22940133386043   -0.55205026977156
C         0.80631398377405   -0.12407851922910   -1.98082654782447
N         0.50461196440446   -0.93255308105819    0.20565895150787
H         3.48199056863298    2.41227680893057    4.52313370383298
H         4.83357743704756    1.45631670607775    4.06757844169426
H         3.23377941507414    0.71483844314943    3.83028963371700
H         2.61693696315298    1.83498026142467    2.06381658660659
H         5.52529331184081    1.37804352170654    1.85476937640821
H         6.27960953522187    0.16878105407026   -2.20068765335223
H         5.97470175419106    1.76743575431367   -2.43095205837469
H         4.05822696487738   -0.52313740698110   -2.09248115608080
H         3.67764490077178    0.95455057572948   -2.95314572631200
H         1.73955510818903    2.37869982989528   -1.47847515699672
H         3.31585208782565    3.11092562808876   -1.60005735504821
H         1.60497751418334    3.23493710292618    0.80609234559280
H         3.43851325907758    5.07302817925650    0.62130662465377
H         4.51609627177858    3.57555384424106    0.30808727024799
H         2.91676771320021    4.06526672912011    2.82597989681226
H         5.77858540747191    3.72749110744367    2.44555944649451
H         4.92573170376147    4.24680098595829    3.84045217332902
H         2.52271793438300    0.12093948825935    0.86637766808549
H         1.59232151650119   -0.31698041063583   -2.70618193929142
H         0.38925404018117    0.85963361311026   -2.21510011417061
H         0.07120852089636   -0.90092800855568   -2.21435020182184
H         0.68000248299817   -0.93775532136750    1.21175834387889
