39
 energy: -52.269327039786 gnorm: 0.107461967598 xtb: 6.4.1 (79825abcba525fcdf90b791dcacef51065a7a4e7)
C         4.08306222159082    1.68672509916086    3.84425662820492
C         3.72988898480982    2.04847480960512    2.39563751319974
N         4.72903654335110    1.39012162043484    1.57201566289960
C         4.82724834043981    1.22208727423795    0.21554174835879
N         5.90345057491234    0.73919414682173   -0.33113852990778
C         5.66379885335858    0.59422670337854   -1.76583258584484
C         4.15290716287012    0.49715577990843   -1.92290922718631
C         3.58219507703591    1.20362442024468   -0.69246306698398
C         3.08272579278022    2.63962331216915   -1.02707270819954
N         2.16600855207859    3.15982477595556    0.00820582461383
C         2.56091239018062    4.03031790818228    1.11036852065469
C         3.55123245617763    3.58486430279218    2.22383674506375
N         4.83162987103790    4.32642678855063    2.13028110405045
N         2.51823324981218    0.43191528195133   -0.03604309022367
C         1.41991759371198   -0.13174097431941   -0.62739994191440
C         0.69586786424869    0.65554726731554   -1.69086675023476
N         0.76082619400627   -1.10087072144504   -0.08597308232380
H         3.29273649635311    1.88750420314855    4.57248120942487
H         4.93568175231474    2.26763706145548    4.20785234158604
H         4.39606882233705    0.63950660726902    3.90063254040424
H         2.78200334000528    1.65510940939870    2.02051932314656
H         5.61436448861735    1.23026049688517    2.04912005225934
H         6.14183899321273   -0.35628489285167   -2.03195577109784
H         6.02182934057907    1.42955552190781   -2.37170338300940
H         3.82908949584637   -0.55055453866709   -1.92448144142262
H         3.78176353309914    0.98015428158988   -2.83581723609171
H         2.55063662336951    2.65723881274289   -1.98487627079655
H         3.84165376563446    3.41320660488910   -1.19994225961961
H         1.66855229208869    2.34223505850403    0.35713052745829
H         1.62633489063629    4.29277604304197    1.62449912417770
H         3.00163829131627    4.94195925341021    0.68715263915016
H         3.13979443976909    3.82913029446919    3.21267098723027
H         5.17609030253246    4.04535392441001    1.20901962077030
H         5.47316991534612    3.85996864532201    2.76842566027275
H         2.97534862993860    0.02974283195103    0.77611358904210
H         1.12617317373882    0.53498261770913   -2.68155385013730
H         0.63028655003293    1.71847482116032   -1.44107329862006
H        -0.32291498991946    0.26187812757567   -1.76512692675564
H         1.13236407785049   -1.57668400311099    0.73779035713375
