39
 energy: -52.262291093782 gnorm: 0.115373734977 xtb: 6.4.1 (79825abcba525fcdf90b791dcacef51065a7a4e7)
C         3.62543273133345    1.45892438718659    3.59880095613266
C         3.57894202757411    1.95485859673269    2.14760164355510
N         4.74658847955230    1.30915031955907    1.57337140525075
C         4.90763693413103    1.23788062208599    0.21436932528237
N         6.03867135059079    1.22039309361478   -0.42649860378933
C         5.76252477944729    0.93995679972659   -1.83429621138521
C         4.31451677797234    0.47161120783051   -1.86284051003257
C         3.64104739522207    1.12747268631148   -0.65656827561205
C         3.06493715387623    2.50437899044675   -1.09900699227496
N         2.22678046308860    3.31127016666774   -0.18840186700159
C         2.96827936963052    4.09623757131734    0.79265649766079
C         3.47956001683991    3.50790969930838    2.13855273901642
N         4.83652327167535    4.09161733170387    2.26512791694651
N         2.61354137582568    0.27663666510327   -0.04114453844066
C         1.28789721662752    0.01568079999086   -0.26086745018649
C         0.55268080318659    0.59798918457682   -1.44214057434735
N         0.60614254605325   -0.78000225790975    0.49335798969164
H         2.67234980721070    1.50233159948956    4.13264251088102
H         4.41063850245274    2.04678673289553    4.08304302776524
H         3.92784058321271    0.40710494624326    3.59221996654289
H         2.67128992774676    1.53028388891582    1.71189395153737
H         5.53785648215448    1.38338657695722    2.21006103729065
H         6.46696426124771    0.11520025940182   -1.99664733961861
H         6.07352826370380    1.72125324950195   -2.53135587732145
H         4.31838031685660   -0.61423118583179   -1.70958047522495
H         3.80576261789326    0.75789708536645   -2.79216595602538
H         2.55156706443968    2.51207114501358   -2.06710245937298
H         3.94797969761041    3.06674973379118   -1.42803843954356
H         1.65782023797099    2.63441405111412    0.31737890705899
H         2.29735296940488    4.95573610861464    0.92595951029177
H         3.84194295896631    4.57812522494686    0.33556003401180
H         2.92745677896961    3.85337413952468    3.02318634774912
H         5.40190416170279    3.50613646868587    1.64550361493197
H         5.12895535959182    3.86892831253096    3.21448474208914
H         2.95946071108832   -0.48449647111274    0.53445234997576
H         0.51074733828355    1.67067795695694   -1.27261238130313
H        -0.42817891487151    0.11628593722767   -1.39326462636667
H         0.98242937722162    0.29907038546929   -2.40358333303258
H         1.09282135218909   -1.22899765788245    1.27090011190761
