39
 energy: -52.260782630051 gnorm: 0.120518832415 xtb: 6.4.1 (79825abcba525fcdf90b791dcacef51065a7a4e7)
C         3.94634538321065    1.38452052314362    3.56135393416711
C         3.62908895797995    2.07264424806221    2.22721538661488
N         4.72468951181381    1.57697067501154    1.41232587843659
C         4.73985949066634    1.37849887066455    0.05649349645336
N         5.83500688107171    1.05558250967978   -0.56530518389969
C         5.51713711572615    0.50516475234858   -1.88166176600097
C         4.01104648379509    0.59191215257396   -2.08428318341953
C         3.46711252149087    1.21158853927419   -0.79628279126777
C         3.05487263669915    2.68849520117804   -1.06522702722083
N         2.49104827824788    3.61887505699092   -0.06558853432812
C         3.39992298167753    4.25129726350268    0.88438982817823
C         3.52928592036143    3.62390996231949    2.30164939321486
N         4.49628992762250    4.39378718336526    3.12035413322857
N         2.56808642207176    0.30778390366594   -0.06599092948155
C         1.42201282978376   -0.33974742578894   -0.44139347267886
C         0.73997765076091    0.13504649763896   -1.70013537708075
N         0.72412913589485   -1.17036740072053    0.25845349947006
H         3.13330790140908    1.45296925660573    4.28903715838537
H         4.88568194348620    1.67436325965768    4.04120665679252
H         3.94898758344980    0.34031588013902    3.23356186903558
H         2.61967663892813    1.77320723954046    1.93504856508702
H         5.60652570828530    1.94731153138307    1.76190039544454
H         5.74993003282544   -0.56284496734611   -1.79233696658135
H         6.09143072067619    0.99725264706863   -2.66974542118162
H         3.52275703332722   -0.38724211706188   -2.15768344227908
H         3.73018251940065    1.19585950785927   -2.95652122980743
H         2.15321935617319    2.64233579659656   -1.68628059654714
H         3.89426759184135    3.15981775156565   -1.59206461223406
H         1.68047365332391    3.19645862115738    0.38407495912423
H         3.00974356527990    5.24525085761807    1.14219971403857
H         4.32119792900331    4.31355863356902    0.29124823851850
H         2.64677880227371    3.77432749964058    2.93827804324329
H         5.42125740751278    4.22291342106100    2.71834047220375
H         4.55859850761887    4.01967399829371    4.06509868563075
H         3.07001894034710   -0.12487587782427    0.70288154463944
H         1.43514045363964    0.41684363976693   -2.48658211540349
H         0.01352353736567    0.90162191548811   -1.41528592060590
H         0.07053775881628   -0.69496495315950   -1.94780389545779
H         1.17515310051983   -1.31433153667090    1.16337150522468
