39
 energy: -52.266194746696 gnorm: 0.109690745210 xtb: 6.4.1 (79825abcba525fcdf90b791dcacef51065a7a4e7)
C         3.46096135864264    1.57171269210633    3.71971697047354
C         3.50714641890857    2.06595184119558    2.26792974180991
N         4.50758681692586    1.35385393333492    1.49197010899501
C         4.64170147013103    1.40080584139038    0.12899123474519
N         5.78620133554270    1.09236260815878   -0.40508667039701
C         5.62378103152576    0.85248086431200   -1.83787135072746
C         4.13366550085743    0.56669708076133   -1.95941502966295
C         3.43585598116269    1.32195859121968   -0.82740359123894
C         2.77438071387505    2.69272017448993   -1.15449551997647
N         2.39921173962172    3.47120398480315    0.04383369381568
C         3.56839659595349    4.06509598406192    0.68318417635377
C         3.75182003573717    3.59873700246653    2.15554263243580
N         5.04502927875224    3.94081346430799    2.79482245624289
N         2.59637453065935    0.34763254756069   -0.11719475138144
C         1.38069791728717   -0.24406164313029   -0.33105663947942
C         0.58836831004138    0.16949591215769   -1.54605308195254
N         0.97224049176532   -1.24703906676558    0.37176324194043
H         2.80816238876084    2.19945807917027    4.33211168211770
H         4.43557964985848    1.68380924022511    4.20363242845670
H         3.14117178899123    0.53150103012651    3.83595929420388
H         2.48258088455946    1.99387637446314    1.89509224503095
H         5.43005869282958    1.17804631331300    1.88583187057455
H         6.31056537874019    0.07667257916040   -2.19740574489878
H         5.87580607759339    1.78419041521627   -2.34918356164308
H         3.81858422866362   -0.48106901654961   -1.88547410816145
H         3.78167222669800    0.85626690233864   -2.95775676957082
H         1.85494696489971    2.64331644641972   -1.74864844624011
H         3.47157082012041    3.18635618614403   -1.84336133757478
H         1.68754865039975    4.13140313224373   -0.26493298356702
H         3.45647201238848    5.15768524818067    0.70245204513710
H         4.56068262076782    3.90068051584612    0.24412045301312
H         2.92752917981678    4.09686712503422    2.68389029669759
H         5.76445290378172    3.49342011025236    2.22154547200210
H         5.02821032172467    3.56219769990370    3.73967828186393
H         3.11792870544341    0.02550225412936    0.69182250905589
H         1.30451076187782    0.36409508923285   -2.34004966367676
H         0.16802509582020    1.14068634446798   -1.26926184688529
H        -0.15929498154085   -0.60280567262968   -1.75331698949365
H         1.60620708038643   -1.52392789440230    1.12305800612831
