39
 energy: -52.265384269006 gnorm: 0.115997434011 xtb: 6.4.1 (79825abcba525fcdf90b791dcacef51065a7a4e7)
C         3.80042462360532    1.53911888438005    3.76205617664347
C         3.51549479662098    1.85933983905638    2.28884027321156
N         4.61032654933250    1.24137095946171    1.56114825672158
C         4.82189324114046    1.20425643002869    0.20772124820665
N         6.01609688759017    1.10051447043809   -0.29563907965148
C         5.75654030438664    1.02486023990104   -1.73219829086140
C         4.31316541565864    0.60828824938823   -1.97720083387515
C         3.60926692737776    1.17370814301456   -0.74284463227619
C         3.05588626266212    2.60145889464745   -1.02360005588484
N         2.11021397018006    3.20167399072263   -0.06015444103585
C         2.75608507354074    4.00468879724900    0.97255447388268
C         3.55641717283050    3.41022286565028    2.16631033577840
N         4.95424017421938    3.87992121075206    2.01281940621539
N         2.64490663923798    0.25206190008644   -0.12720321921571
C         1.31905245467241    0.00236939364330   -0.35844524393775
C         0.74597357064654    0.46228804705125   -1.67567257202302
N         0.58108217894418   -0.72028608586983    0.41610358546342
H         3.14549940078257    2.14443416797016    4.39443613474905
H         4.81135663157559    1.85129080348960    4.03987948492614
H         3.80648483078601    0.45751645246823    3.92914120075253
H         2.55448190227004    1.43431501969375    1.98926503496634
H         5.47279580236557    1.50813097071311    2.03229118154501
H         6.49552546147562    0.33721209637241   -2.16098400528847
H         5.81761318309414    2.04613363788966   -2.11470350829459
H         4.16636297876695   -0.47842327047731   -1.98522472220446
H         3.89434838476411    0.99302341747512   -2.91582073600659
H         2.57548088670395    2.79666098857070   -1.98896198782497
H         3.94301199020796    3.23980307944403   -1.12265215877533
H         1.49710600677079    2.47514643559726    0.30579700714767
H         1.86871381447106    4.44415043407559    1.44804935508986
H         3.33927375171569    4.84045582643272    0.56533783529234
H         3.10681798447365    3.93607241359307    3.01958819691518
H         5.34928048854442    3.62248440193769    1.10504900346475
H         5.56061892313132    3.83092281901279    2.82908484941206
H         2.93566443638546   -0.26554280379276    0.69610770380943
H         1.38231366815986    0.15179592432621   -2.50018778829619
H         0.70491827410575    1.55524163255527   -1.69239317051549
H        -0.28300798284620    0.09127567590502   -1.63145435891787
H         0.94188347479067   -1.08792443012336    1.29797055255012
