39
 energy: -52.269772484375 gnorm: 0.116770792987 xtb: 6.4.1 (79825abcba525fcdf90b791dcacef51065a7a4e7)
C         3.73835949644149    1.51014982333723    3.74287834558663
C         3.64880694762822    2.07080827022637    2.31748927765887
N         4.64910170283305    1.37170959248968    1.52961289933265
C         4.66158914347926    1.30060875662684    0.16114977432894
N         5.80037882366648    0.98219488886264   -0.37924547334379
C         5.57018798575838    0.85476543178367   -1.81715000808388
C         4.06956358672049    0.67080004171538   -1.99370785477710
C         3.40212151693202    1.19208035958870   -0.72028888919183
C         2.74512501048880    2.57749772140845   -0.98954764489872
N         2.36609911720059    3.39053178115738    0.18437598020480
C         3.49022355824506    4.05934252941413    0.83052332537312
C         3.71506422674364    3.62561647984081    2.30710812264914
N         4.98117997417940    4.28537805001687    2.70679639725894
N         2.49735603892733    0.23711875234666   -0.06615995152006
C         1.29214980316521   -0.23439226234119   -0.51210147030797
C         0.75463625695048    0.10716666308387   -1.87937945775785
N         0.64021436826498   -1.03265841280864    0.26539985394347
H         3.07121099448076    2.05221577547760    4.41838957962657
H         4.67199045498926    1.93670518744727    4.12103754032792
H         3.62065889233704    0.42342390392878    3.79757104365660
H         2.70595444830547    1.70333616293452    1.90526286389055
H         5.59501604635697    1.40820477800826    1.90498459845687
H         6.02319876970416   -0.03642589628620   -2.26812169650355
H         5.93717948782303    1.79941035965857   -2.22458427584044
H         3.80524358052253   -0.37095658531443   -2.21150435416471
H         3.73350722024968    1.14976388236547   -2.92219906472939
H         1.80020088881877    2.39738528791145   -1.51442359656902
H         3.44504762635543    3.17321902787058   -1.58914010684024
H         1.65338350719504    4.07831873765054   -0.05363596547332
H         3.26384396671293    5.13413615829311    0.81567083533386
H         4.37306317293324    3.73665740552008    0.26403459589624
H         2.91748723330131    4.02733815387703    2.94681970943204
H         5.69313350123920    3.83175153452383    2.12910891731466
H         5.19907515960429    4.03591478065908    3.66943603330524
H         2.94048456322935   -0.29184163655839    0.67824156417958
H         1.55688595728793   -0.21698513830977   -2.53701191815607
H         0.52051207216911    1.16584243033175   -2.02396209315227
H        -0.16037982259595   -0.43929408414358   -2.12944881830723
H         1.14624735139257   -1.28208880808504    1.11671646993515
