39
 energy: -52.269106035798 gnorm: 0.108122312764 xtb: 6.4.1 (79825abcba525fcdf90b791dcacef51065a7a4e7)
C         3.84446725633561    1.47882773203070    3.78315959850441
C         3.70292952680812    2.01126362233457    2.35117822311072
N         4.70690338328833    1.33236463417242    1.55042205244469
C         4.63145383338728    1.20292126829145    0.18827139401416
N         5.70976412793199    1.38624244452815   -0.51450641149734
C         5.41842946226556    1.10210319246926   -1.91849521089840
C         3.99903949284413    0.55444155985014   -1.96633234124663
C         3.37104572143520    1.12798284059887   -0.69531613126861
C         2.90398890020432    2.57994915820109   -1.00704961846599
N         2.49029519597931    3.43474639897424    0.12474581658539
C         3.46727648438191    4.16985153851526    0.92073448667149
C         3.78751702914867    3.56484770465402    2.31729835298978
N         5.08607764810979    4.18472271640789    2.67448238475576
N         2.29732102527547    0.37920289693881   -0.02832226557354
C         1.20848484611659   -0.27287766161865   -0.54109442395366
C         0.92334536566913   -0.24302235869760   -2.02191735719958
N         0.34575956696931   -0.87084784513942    0.21049970041857
H         3.08014072066330    1.97074358384952    4.39066416132805
H         4.84645490954567    1.66072973981635    4.18260048851581
H         3.69327560914709    0.39707468388667    3.85222030427036
H         2.71823932027495    1.63140085062621    2.06828834620638
H         5.62270922934036    1.76611257805884    1.65117995313296
H         6.27295250031142    0.46252456693943   -2.17057809447872
H         5.58838285482640    1.99812053546544   -2.51958443435950
H         3.89998078550410   -0.53077662180179   -1.84366963507765
H         3.36636872080369    0.82649066730101   -2.82082234140680
H         2.08151663420067    2.57502163733313   -1.73115731141934
H         3.73112510590272    3.11259186046797   -1.49328426410687
H         1.68901137194854    3.11731262594101    0.66774135723720
H         3.07078053123106    5.19213339067900    0.98691933498683
H         4.39270898020433    4.20576978192033    0.33190044292245
H         3.05047201661860    3.71215817897736    3.11842541093920
H         5.77993325840874    3.87806676703216    1.98825779578766
H         5.42855959221456    3.93883246176726    3.60110496430367
H         2.51750192729492    0.16926467554347    0.94004849335685
H         1.66240650755194   -0.75377493475559   -2.63353803716991
H         0.98643625859154    0.78610275088705   -2.38720314361738
H        -0.08645797171063   -0.63607549000151   -2.17752880311368
H         0.65376988285298   -0.83167147276834    1.18344355432036
