39
 energy: -52.267497269011 gnorm: 0.112326580510 xtb: 6.4.1 (79825abcba525fcdf90b791dcacef51065a7a4e7)
C         3.71084115465269    1.47362436994844    3.75361693711682
C         3.67305284899672    2.07290525114106    2.34169412579104
N         4.68775914452876    1.40581090818770    1.54455295497242
C         4.66615467958762    1.39256838355027    0.17442139085854
N         5.78863477301804    1.48322764123098   -0.47525214970796
C         5.48843549368094    1.12526031358812   -1.86036417905281
C         4.12787846750494    0.44299986579304   -1.87753395874343
C         3.42712789133379    1.12631616681823   -0.70244441464356
C         2.86207437888512    2.50558860628468   -1.15171945043896
N         2.54452434823874    3.50764277642322   -0.11353299154527
C         3.62624622113219    4.02948155509282    0.71473752428152
C         3.64976112807128    3.62390380218945    2.21604629146087
N         4.92427363026470    4.10854115056642    2.79813706516919
N         2.44246961617150    0.27895901122749   -0.01624411742437
C         1.20097347047153   -0.13981230143735   -0.41250974107128
C         0.84313893436145   -0.29751399491439   -1.86925852570858
N         0.27018489378044   -0.51312203160025    0.40052742392820
H         3.02484732449023    1.98250844350555    4.43602994511257
H         4.75296255915313    1.52668708627361    4.08192768523488
H         3.53703717285385    0.39337090206511    3.72787646240488
H         2.72559146127138    1.75422148989478    1.90045180139633
H         5.65048986170100    1.57053487662504    1.83265944538543
H         6.34045587365893    0.50673325009140   -2.16745010371753
H         5.52043819959362    2.02335557358339   -2.48120249971243
H         4.25650818563747   -0.62550003267441   -1.66701168704119
H         3.57287165394628    0.40259080197588   -2.82345716767145
H         1.88525562882942    2.27574125395073   -1.59196050505280
H         3.46308584382234    2.97976627293485   -1.93799384655317
H         1.82242545117399    3.19241987128576    0.53212313251444
H         3.59133578121357    5.12629054316714    0.76414366380695
H         4.56752963115574    3.60471358821196    0.34325579788608
H         2.80470060705214    4.09921756534860    2.73246649504053
H         5.74233516250113    3.87174504592589    2.23149732116736
H         5.03895933527996    3.63229319772965    3.69056094560741
H         2.66737690075000    0.27339369980063    0.97354441757132
H         1.65434134899554   -0.83617941625569   -2.35190707998113
H         0.79267063789899    0.63730622537301   -2.43501179117247
H        -0.08618679341291   -0.81093452182379   -2.13601967023825
H         0.59199363129585   -0.65634561637850    1.35914675533788
