39
 energy: -52.262938454561 gnorm: 0.140152300053 xtb: 6.4.1 (79825abcba525fcdf90b791dcacef51065a7a4e7)
C         3.83349697589627    1.54524086502408    3.75126647980496
C         3.66159609733463    2.00255544857343    2.29682328458652
N         4.73779749110947    1.42336480637548    1.51170767963768
C         4.74360659280619    1.18115597526033    0.16292906774328
N         5.92224519102832    1.12957998265802   -0.38333765695230
C         5.65692632980937    1.01673554633639   -1.81639996647922
C         4.19320078359442    0.62898198421666   -1.97146199636202
C         3.46950415387362    1.06255207340886   -0.69588834538692
C         2.97261332534899    2.50130871132920   -1.02239231038061
N         2.29274701961164    3.25443067906940    0.05155871637543
C         3.05717176689587    4.15978737333500    0.90270736463074
C         3.61275058454408    3.55634319936438    2.22413143233961
N         4.84462762715172    4.34975451002446    2.45010173056840
N         2.49247788759968    0.18802084961716   -0.03327855366354
C         1.29235288688769   -0.24028401900578   -0.53324203892917
C         0.51730227955510    0.43060912370225   -1.63969192898050
N         0.79113039402411   -1.21640761664491    0.14699006566987
H         3.02845152019064    1.87689655688880    4.41243541646129
H         4.86886020017942    1.78036113126392    4.01463328630947
H         3.75390460216790    0.45391968728108    3.72888138922976
H         2.78131960397168    1.47205000263741    1.92585904544315
H         5.68149260215719    1.45907442847851    1.89269864734044
H         6.28448149214396    0.20940653206847   -2.21289788721616
H         5.91029356384651    1.97404025394539   -2.27728197828270
H         4.08255224571152   -0.46089761996144   -2.02122760538096
H         3.74475029203759    0.92333773762676   -2.92889764361722
H         2.26784354531365    2.41148856107654   -1.85668767325867
H         3.82355744597964    3.09641643128829   -1.37739594345058
H         1.68287482869063    2.72203076033744    0.66983887975618
H         2.31131905878520    4.93656722916174    1.11942481270670
H         3.86267290068128    4.63410505019519    0.32770161375836
H         3.01323805174960    3.79471047446160    3.11323550170485
H         5.58696297442687    3.97128821290379    1.85673914547007
H         5.20014872539832    4.50507034741562    3.39130683029386
H         3.00641090740130   -0.43592095537918    0.58061483043819
H         1.09767293881435    0.40098695467844   -2.55808827359468
H         0.27861251228442    1.47550162993127   -1.42119822158489
H        -0.43504245537839   -0.07999018262011   -1.81500968517732
H         1.39901188868046   -1.66679900648873    0.83303129405669
