39
 energy: -52.263872349373 gnorm: 0.123978955098 xtb: 6.4.1 (79825abcba525fcdf90b791dcacef51065a7a4e7)
C         3.91812622135888    1.40870413335882    3.56219899890254
C         3.70113060302471    2.07287376002449    2.19622566238547
N         4.86287571406896    1.80572919022351    1.36612938240374
C         4.84282923944007    1.22118173626998    0.12685337868847
N         5.94680591718759    0.85280127710347   -0.45261851691384
C         5.60047149576452    0.30054394504705   -1.76099913540535
C         4.08968398596744    0.41618418067172   -1.90604379171005
C         3.53202560254093    1.13954867528100   -0.67943510059398
C         3.00416425075004    2.58004917518447   -0.94372029371285
N         2.20030590591698    3.33236777284274    0.04147520485538
C         2.97837865532310    4.21478001712241    0.90427378354376
C         3.58450101408987    3.62469526986035    2.20941360103059
N         4.75167168909154    4.41059024378939    2.67649693420493
N         2.56162868782287    0.30075883699485    0.03694353405448
C         1.36976027972468   -0.13498991988806   -0.47616587193962
C         0.73138123228087    0.65702957335393   -1.58981290929872
N         0.62233967049078   -1.08983800154880   -0.03301292596095
H         3.17731915256806    1.82990342379475    4.24705963669045
H         4.81444742402211    1.87240380478852    3.98435008246116
H         4.02271325515976    0.31929060457645    3.55460542163654
H         2.75110503639523    1.72441830118282    1.78395461849941
H         5.73310570326254    1.62100714657586    1.86167684963861
H         6.04298119411945   -0.69472088013952   -1.88925398098836
H         6.08297566575175    0.92909284592871   -2.51276737732746
H         3.61993695928222   -0.57230243123352   -1.97524788054825
H         3.75717248257181    0.77402784356762   -2.88880529667356
H         2.45608554020185    2.53307191981625   -1.89146483363744
H         3.86723592261767    3.24768050647255   -1.06060640755506
H         1.55134209798099    2.82367847366681    0.63959332892578
H         2.20845797291767    4.94618752247049    1.18519168164911
H         3.81645640502944    4.63543723835944    0.33408597327342
H         2.82010352685999    3.84009762639252    2.96838566438959
H         5.52020158234964    4.18943365217938    2.03866527161786
H         4.95466773973159    4.06383920437244    3.61188007739253
H         2.93664598576506   -0.12984577161919    0.87613200798390
H        -0.11610566658058    0.08074589306042   -1.95150683818675
H         1.39472789257570    0.74638213456946   -2.45497184414554
H         0.23350256482269    1.61092797880995   -1.38831075200658
H         1.03372085410574   -1.59667319986311    0.75242229289171
