39
 energy: -52.264857970563 gnorm: 0.114590814345 xtb: 6.4.1 (79825abcba525fcdf90b791dcacef51065a7a4e7)
C         3.65297502077432    1.50343522572599    3.63161162295279
C         3.70833059105753    2.14737933952114    2.24007891421839
N         4.74961483984469    1.50409325955990    1.45778237780737
C         4.71141313163528    1.17247354063695    0.12869562862978
N         5.81685521780151    1.05399345834317   -0.54526032390050
C         5.49344466199730    0.86736611465830   -1.95854422668924
C         4.01785652118158    0.49559762729285   -1.99483982084853
C         3.43403880897790    1.13151475455171   -0.73247130388084
C         3.00881963782127    2.59302843891321   -1.05910936760866
N         2.61016458937760    3.37105641853557    0.13191050310328
C         3.55444642021374    4.20753228435160    0.86478833726715
C         3.69523150745684    3.70106048684516    2.32856432761741
N         4.82443950570861    4.36051160954899    3.02720489515382
N         2.40862670709710    0.35656581222869   -0.02083860078391
C         1.35999000835043   -0.38332318100456   -0.49689944663359
C         0.61545986422628    0.09689146269104   -1.71759645752338
N         0.71324816348884   -1.27617557735227    0.17488665584444
H         2.93694091914120    2.10411076513058    4.19881714999322
H         4.55673469024910    1.76295923901919    4.19061642109668
H         3.41360462653246    0.43570594105290    3.60984158371969
H         2.75494426137490    1.84896277080718    1.79742864832746
H         5.64492135305459    1.50085577052114    1.94296843971698
H         6.16001349398015    0.13547800220614   -2.43060566517127
H         5.65118583826089    1.79397774328205   -2.51491469661354
H         3.93021598266386   -0.58578725535825   -1.83520542207936
H         3.47564323637411    0.77722842132826   -2.90650040924923
H         2.17707398688858    2.50626382082856   -1.76726749647917
H         3.82550186859126    3.07057077666591   -1.61522997312670
H         1.77000359424204    3.90479802988292   -0.08468479627659
H         3.37021963764683    5.28728638004870    0.78207653331018
H         4.51294346176249    3.89641528736884    0.43012686718245
H         2.71908041861305    3.90581688409458    2.78893825442673
H         5.70289460695487    4.20701054398712    2.52607445208297
H         4.82465173825740    3.92031301829714    3.94514305173670
H         2.73782938558215   -0.23478851380639    0.73561449091453
H         1.11204509147476    0.21275307387299   -2.67735612402880
H         0.33729059654979    1.10452245420899   -1.39539417738451
H        -0.32512518410302   -0.45273817917264   -1.82537164086920
H         1.07087231148234   -1.55610328205276    1.08963816870327
