39
 energy: -52.266712246801 gnorm: 0.116730514747 xtb: 6.4.1 (79825abcba525fcdf90b791dcacef51065a7a4e7)
C         3.62267458419502    1.42847540893340    3.65161283583362
C         3.67729157049965    1.97467800355230    2.21886328908467
N         4.82144686035350    1.32526225644417    1.60303407167227
C         4.87967806498662    1.19682248949955    0.23994384715655
N         6.00433598387176    0.96135739007860   -0.36829715358300
C         5.78367019464163    0.75325394781880   -1.79826047674987
C         4.27545468182365    0.71073753494969   -1.99917799611336
C         3.64305487681311    1.15232241287515   -0.67861703416446
C         3.00760258718309    2.55137099304360   -0.92839583525038
N         2.09783968317344    3.01323464637923    0.14015230439881
C         2.55127244630199    4.00132558551432    1.11305773984263
C         3.61606708402113    3.52788164912360    2.14312447862302
N         4.87436403393959    4.24729986188219    1.83133712232530
N         2.71548677193543    0.12830237637603   -0.17918004203262
C         1.35781213593087    0.04765381110968   -0.33385374649534
C         0.64556289186646    0.66082899968329   -1.51357813030731
N         0.69203478424832   -0.77472428612655    0.40587036506780
H         2.70127345231711    1.55261406714781    4.22680636329854
H         4.40508645593254    1.92917837592294    4.22932281748788
H         3.91187532490340    0.37604755014883    3.57051730196681
H         2.86946314772829    1.50421270652078    1.65316650603805
H         5.73928396834989    1.35399941575483    2.04319196882986
H         6.33651453976002   -0.17890789905857   -1.96634866307680
H         6.27361641068632    1.54956769372310   -2.36295208027862
H         3.82644154848307   -0.20019401401377   -2.41287858215951
H         4.01144118951730    1.44996747446487   -2.76616701419373
H         2.45279497748995    2.66888507524219   -1.86605025110711
H         3.83915135135218    3.26658161647670   -0.96427187013035
H         1.38695494641150    2.36929824181590    0.48315801395316
H         1.67406600795926    4.39157217612626    1.64678624794407
H         3.08156420927906    4.74964140155472    0.51035131130033
H         3.48629819342130    3.95456704391386    3.14703676998175
H         5.43555095441154    3.97354327402241    1.02108763475828
H         5.56180514799570    4.40385212947672    2.56570855658408
H         3.07433824294114   -0.40994181031530    0.60300562944309
H         1.28683717799143    0.58539583935517   -2.38778437059250
H         0.41354580246985    1.71506583654485   -1.33675782720655
H        -0.26187653737223    0.07011268227416   -1.67487407009983
H         1.14047434839485   -1.30451825546097    1.15503335613546
