39
 energy: -52.262181867455 gnorm: 0.127191434454 xtb: 6.4.1 (79825abcba525fcdf90b791dcacef51065a7a4e7)
C         3.65653250645532    1.56477437847131    3.67923888620550
C         3.61196318123321    1.98960215867527    2.20559493875308
N         4.75746203673771    1.45937107245978    1.48673116677804
C         4.76563852494379    1.20619877971125    0.13997969048670
N         5.89426016489765    1.14532049399828   -0.50248695511680
C         5.64449070346208    0.78713755995062   -1.89751948005278
C         4.17345076048968    0.40033651133128   -1.95510395114531
C         3.50753238080259    1.03507220331488   -0.73343652778386
C         3.04628144219204    2.45763555484147   -1.16597216726004
N         2.41078782982446    3.26608682437555   -0.10515355521561
C         3.35692925558963    3.99701901458364    0.73092330057827
C         3.55930293810568    3.54496487110649    2.20525915778153
N         4.68758847819132    4.25598994756770    2.85294752347428
N         2.56841881167099    0.14040468975132   -0.04345633161115
C         1.25748196462933   -0.04765963980924   -0.38955595728881
C         0.46553737697823    0.68183636226175   -1.44581907058631
N         0.60609750130043   -0.90396090614743    0.32402893871676
H         2.67564838201640    1.75383519275246    4.12349150854871
H         4.45697786364567    2.13125726957863    4.16401201301460
H         3.87157017703099    0.49296266999669    3.73211999799066
H         2.66488852336359    1.66077065640685    1.77101855365456
H         5.64394641466567    1.39311383737128    1.98346568092565
H         6.38549789691447   -0.00451650636235   -2.06186179844358
H         5.87998854253965    1.69617316340879   -2.45540345378377
H         4.03951022065511   -0.68608069016267   -2.02079151018293
H         3.77454447471801    0.84746756108520   -2.87455149213770
H         2.45240370463676    2.45127132875872   -2.08688778742997
H         3.98994893932403    2.96411120357824   -1.40526435788503
H         1.93330450685257    2.55783709867353    0.44987449283202
H         3.18236301250774    5.08153058234289    0.72761470450151
H         4.36496357333827    3.90369646596237    0.30713246543765
H         2.69519916570981    3.88088126534513    2.79451727761820
H         5.21987502965528    4.58310686686445    2.04298257682193
H         5.26821156984896    3.66232132774033    3.44186152275510
H         3.00692629377739   -0.42569642753159    0.67594363708310
H        -0.49666254993782    0.17761540500027   -1.47886373203895
H         1.11482619953367    0.62797104412055   -2.32447441431445
H         0.34268400590506    1.75851214552647   -1.29062639367481
H         1.20852267755014   -1.19071364347755    1.09725701772566
