39
 energy: -52.268121718651 gnorm: 0.112338577279 xtb: 6.4.1 (79825abcba525fcdf90b791dcacef51065a7a4e7)
C         3.47252081898014    1.40112716396684    3.47772080245636
C         3.65966562991166    2.04745493708841    2.09883400794645
N         4.89391309368721    1.49889250704160    1.56424048094145
C         4.89669017624455    1.28345797013685    0.21091758410125
N         5.98300150670755    1.19102036846174   -0.49734744263262
C         5.69788866796214    0.79866360335552   -1.87631893661979
C         4.22367802901401    0.42051623978232   -1.85188325151325
C         3.61638425921881    1.10944830610434   -0.62902804086565
C         3.11416767240081    2.51184231994947   -1.08135041122849
N         2.36767124245549    3.26123089425896   -0.04987498533134
C         3.05401114592785    4.22828234271343    0.79995970590693
C         3.57622917878525    3.60126664687667    2.12401179002846
N         4.85945675072946    4.21760663285378    2.53818224539081
N         2.58013993090611    0.24697933298434   -0.04526277994664
C         1.29333985921812   -0.11420262667665   -0.34090058635595
C         0.49283106357153    0.52700747722188   -1.44682449099062
N         0.68746081975110   -0.94814408848173    0.43640835975974
H         2.43477213751609    1.40290940512698    3.82168671403277
H         4.01438647756801    1.90303212767137    4.28462453678182
H         3.75225032709234    0.34311263475962    3.49093481323653
H         2.79907097235523    1.69212285200455    1.52694839458777
H         5.76154991522925    1.42080863351809    2.09159141711048
H         6.33364673723244   -0.06984935963988   -2.08682577981827
H         5.89631314738575    1.59534488527801   -2.59671198826123
H         4.17664611130075   -0.66214747968820   -1.68400074061389
H         3.75063761644681    0.61790077124683   -2.82229980636356
H         2.43405786658688    2.51694872048549   -1.94056017991778
H         3.93382984052002    3.19358932340249   -1.34146890092914
H         1.66285917874785    2.76812147869072    0.49578716645781
H         2.39670668977916    5.08934338718662    0.98209808878467
H         3.94309213241405    4.55116953547919    0.24343493961466
H         2.81446903822618    3.70501412229238    2.90867620224004
H         5.50021190920275    4.13301612204375    1.74530461397151
H         5.15345764562576    3.79195427489676    3.41497689031075
H         3.01184618082727   -0.34184869171721    0.65986620525327
H         0.46635517003255    1.61335816929722   -1.42948608137343
H        -0.50592289477894    0.13235735281869   -1.23884739470495
H         0.87292624075447    0.27072000285255   -2.44093356322080
H         1.34969054875689   -1.30940386037642    1.12486173448414
