39
 energy: -52.272558268531 gnorm: 0.106551289631 xtb: 6.4.1 (79825abcba525fcdf90b791dcacef51065a7a4e7)
C         3.66539297073633    1.38312495047020    3.55856037716196
C         3.56952505481392    1.86888934234046    2.10634349841360
N         4.76875469372853    1.42071992252180    1.41999794018043
C         4.81290802739873    1.22953376285629    0.06375276802593
N         5.91513182225291    1.30238491437102   -0.62185046720241
C         5.69461522161830    0.97100156118130   -2.02838985452748
C         4.26319133593501    0.45511413087558   -2.07052491001972
C         3.57540103962678    1.03522239516335   -0.83390576564680
C         3.03423445145748    2.44883385519036   -1.19772903708221
N         2.50766706551689    3.40215804735370   -0.19938967745840
C         3.45892188651897    4.00068172738375    0.73085418218418
C         3.47183188526675    3.42060500325659    2.17387830027340
N         4.44021577510310    4.18251507047882    2.99838471926502
N         2.66937484898634    0.02427607322726   -0.27217538184618
C         1.30950889742188   -0.01570513541559   -0.12093162906421
C         0.49441035486187    0.46240950184101   -1.29653921364421
N         0.70793446212323   -0.66225719503908    0.82078786929472
H         3.05920956369301    2.01904397918345    4.20924210999902
H         4.71896824796859    1.49843970582957    3.82930428940924
H         3.39197888748160    0.33513795340985    3.71599590244179
H         2.62831905325796    1.59567572192415    1.62320502062144
H         5.68879617425474    1.68232316428715    1.76939339895940
H         6.49680962758124    0.33334237910836   -2.41914696722116
H         5.73971253375320    1.89818113569352   -2.60401452412811
H         4.16576366787047   -0.63688929579950   -2.09488949384668
H         3.78482321495961    0.77976407738340   -3.00337138039303
H         2.29244198724893    2.43388087266224   -2.00416390948070
H         3.92406392624299    2.98292046283957   -1.55443856617230
H         1.61047818759481    3.14755773489028    0.21036015090712
H         3.21613875157013    5.07120049462229    0.68967674645127
H         4.45559348035119    4.04644733807255    0.27369753834123
H         2.52185300600209    3.64830002388874    2.67630779381018
H         5.38464624313714    3.78954094229000    2.99868486790557
H         4.13005653165841    4.28947006732806    3.96210001784270
H         3.09656578012073   -0.41973485014618    0.53445825970212
H         1.05071580387407    0.49234502201711   -2.22969918696357
H         0.28133350183910    1.50342763655406   -1.03693921088123
H        -0.45892959433352   -0.07027437248931   -1.37269233359901
H         1.28481669744449   -1.10365392854652    1.53870199506875
