39
 energy: -52.270049735225 gnorm: 0.114556355346 xtb: 6.4.1 (79825abcba525fcdf90b791dcacef51065a7a4e7)
C         3.45226698150816    1.60553622031225    3.76834874152933
C         3.65119143738008    2.15933213257489    2.35136927810604
N         4.66917198658670    1.40852400214391    1.63716994134698
C         4.62214195269151    1.24890323889355    0.27694485578587
N         5.75080737899485    1.20690033950396   -0.36695472937174
C         5.50224317997209    0.95241968586565   -1.78478795341796
C         4.03762236842720    0.55625299503869   -1.90655603694895
C         3.38967406382015    1.11344071879290   -0.63828434188557
C         2.86419425438477    2.54520049003034   -0.95047223691404
N         2.43713557321468    3.43344665504638    0.15017370557584
C         3.47218635092603    4.23654269972969    0.79218357685029
C         3.88522935499620    3.68920817609767    2.18817596729777
N         5.27081095348137    4.15766669113382    2.43065370466484
N         2.39660293875265    0.22801710965626   -0.01516950367944
C         1.29726149164332   -0.43644977086029   -0.48807647396064
C         0.66364032737513    0.14366543323739   -1.72784386020085
N         0.68268928284323   -1.47907620612131   -0.03864543771443
H         2.64833127907878    2.08512747414706    4.33307671716439
H         4.37109111893664    1.69655876722670    4.35494719100383
H         3.21278699526795    0.55729102887405    3.56426708667970
H         2.65219775213084    2.04660567221172    1.92330196395449
H         5.61735676058578    1.41974476389354    2.00839705893636
H         6.25005544248199    0.24944111122428   -2.17132928063170
H         5.80116046926549    1.87536493932977   -2.28664454074868
H         4.00121067923081   -0.53957170181945   -1.88656218131408
H         3.59384681022999    0.95809463492890   -2.82635101623729
H         2.06721748670217    2.63137849898266   -1.69761234020454
H         3.74424102961738    3.08038289597520   -1.32913332230656
H         1.65164353900826    3.93668605774687   -0.25899193935532
H         3.19111842894795    5.29841868944850    0.80054398800640
H         4.39195678094906    4.06125413879463    0.21970016608866
H         3.24894494059747    4.22723395685059    2.90400466679452
H         5.99349980276291    3.73060785990977    1.84608612354489
H         5.50306057780657    3.91768524447154    3.39234717466875
H         2.75697055786567   -0.13001127981473    0.86360610919625
H         1.33569888726299    0.25580826041829   -2.57455558235169
H         0.28600653229558    1.13777693054112   -1.47162570539044
H        -0.16322385200749   -0.53196051877700   -1.96916045816440
H         1.15340620984449   -1.81067086872977    0.80485646829160
