39
 energy: -52.268558549024 gnorm: 0.107738482710 xtb: 6.4.1 (79825abcba525fcdf90b791dcacef51065a7a4e7)
C         3.66985087848362    1.42738397354179    3.71303117154976
C         3.68459255305467    1.96661391169691    2.27667978650171
N         4.77651109462533    1.34513754919754    1.54759900410722
C         4.75726574006277    1.40667566084630    0.17875084494201
N         5.82705806894044    1.33544633219217   -0.55659064891878
C         5.46455246307078    0.89906100264928   -1.90379258992865
C         4.01397265207337    0.43789703104581   -1.89783071050715
C         3.48693362134527    1.16381501381079   -0.65925050782868
C         3.00602639253219    2.55708323038459   -1.16030729501783
N         2.53139591537751    3.49112573043330   -0.11863929398988
C         3.51698031299056    4.11219586993269    0.75963471938303
C         3.59950684439002    3.51837860357502    2.19474610542277
N         4.72071934494582    4.25332461803903    2.82785116714045
N         2.53427794284566    0.29015938319732    0.03904019213937
C         1.30565040746860   -0.17120805826041   -0.34996238008870
C         0.54489651025074    0.42539024097293   -1.50769999081648
N         0.79080250370430   -1.22934861517932    0.18109991603036
H         3.02451752466988    2.07368980685831    4.31392357463528
H         4.66642292560385    1.47867428173587    4.16117632316452
H         3.25743901531175    0.41508135696588    3.65846179266280
H         2.74831811984508    1.64992348096544    1.81081010360363
H         5.71225542889964    1.36154126680155    1.94897565544210
H         6.05098768487790    0.06578531330773   -2.30945448808383
H         5.59405710455426    1.74749931489549   -2.57938156767847
H         3.87636715681888   -0.64992641080056   -1.91402156096706
H         3.58018400463131    0.91507617328453   -2.78584177858247
H         2.18033184685261    2.52390230308314   -1.87999083215217
H         3.86014377416589    3.06040903892418   -1.63087429499153
H         1.74306797206375    3.09710823914113    0.39219668406556
H         3.23715203557107    5.15640840949821    0.95448329444868
H         4.46327392112421    4.08071462984939    0.20467680248244
H         2.66310911481302    3.90732562930739    2.61738044256737
H         5.48847944605783    4.21079841651828    2.15323007779138
H         5.00714260446140    3.86319977905189    3.72347923099459
H         3.01927766188671   -0.38367363847801    0.62300931670929
H         1.00518198173992   -0.03002737353709   -2.38056395752855
H         0.58747209071223    1.51805936699899   -1.53552356083606
H        -0.44644835979656   -0.02295256425211   -1.62866500647316
H         1.44417546831886   -1.53005492495586    0.90615465173893
