39
 energy: -52.265974742780 gnorm: 0.111094997426 xtb: 6.4.1 (79825abcba525fcdf90b791dcacef51065a7a4e7)
C         3.81657868831713    1.71947077779779    3.78854495451875
C         3.62771014012853    2.07579337401703    2.30818876773065
N         4.71890984229678    1.40736251443330    1.62075793070016
C         4.81598469237178    1.08492769161513    0.29240749993128
N         5.92646010099198    0.83891504479548   -0.33733729494237
C         5.74356513528489    0.54829698246206   -1.75821241773175
C         4.22893834200512    0.47446073220728   -1.88990683533240
C         3.59199029284096    1.09146789487262   -0.64395044583785
C         3.18455779703771    2.54823837087276   -1.01184247700645
N         2.33368780672618    3.30567901594938   -0.07105257912381
C         2.79527792724261    4.17745188670422    1.00385047673612
C         3.63675941610749    3.62757681550365    2.19066157175874
N         5.01593550001952    4.17158225916116    2.19472926756669
N         2.45179787254893    0.34430525025279   -0.09609448890268
C         1.21562043507774   -0.08850315491826   -0.49390195151733
C         0.71163720411331    0.42153075874976   -1.82089054497231
N         0.45706036193040   -0.83505607128010    0.23685267557064
H         3.01429731566312    2.19317704127150    4.36054585161362
H         4.78730644155664    2.14655207775530    4.05670501086589
H         3.70392663170862    0.63613422079502    3.89582669177999
H         2.64745420251400    1.77117310780160    1.93369979287174
H         5.58359012065873    1.27694435527809    2.14259016240712
H         6.27293221387172   -0.39115975574439   -1.95823179715468
H         6.06939397963321    1.39376736342939   -2.36817543842617
H         3.78655593491406   -0.52826575556770   -1.92725204716881
H         3.91502006602910    0.96789782559044   -2.81856787797532
H         2.72209624957488    2.63859588132593   -2.00117644004778
H         4.15408763724964    3.05132702897939   -1.11767428505797
H         1.65995067247528    2.66837876660413    0.35036264801071
H         1.86030708727099    4.51703445028340    1.46985785079315
H         3.30218655517507    5.02618726815218    0.52726591330035
H         3.24611679522022    4.11140122982152    3.09622910774412
H         5.37863830805342    4.17875975384665    1.23829169951586
H         5.64682585047674    3.51468879814564    2.64954093307685
H         2.67918815769953   -0.07200506189469    0.80127666912387
H         1.52280533871978    0.32883009702706   -2.53822747252606
H         0.20307899849615    1.38943473713837   -1.78859357022793
H        -0.10455421879792   -0.26995354326832   -2.05346202227337
H         0.72533544814090   -0.96632347316300    1.21349090274537
