39
 energy: -52.255193899076 gnorm: 0.126729142927 xtb: 6.4.1 (79825abcba525fcdf90b791dcacef51065a7a4e7)
C         3.93166112629055    1.49579843791581    3.62438097871177
C         3.63855280278712    2.01947501749429    2.21231089640464
N         4.85696822860987    1.61958078953613    1.52994279799695
C         4.89872873635320    1.19974227675820    0.22614285817257
N         5.94142980245706    0.73006446550007   -0.39226929908521
C         5.62186305523973    0.38119421816499   -1.77536806012285
C         4.10635272220450    0.41489899805470   -1.91314306993072
C         3.63735417233416    1.15202184962073   -0.65795454718536
C         3.20542770304249    2.60186954290356   -1.02525168876944
N         2.31451199112197    3.30161275160840   -0.07687922379085
C         2.64803697833519    4.13848953825914    1.07066958970909
C         3.49241596088923    3.56848894412000    2.24587073028445
N         4.82630260272864    4.21561976801076    2.23857244257447
N         2.53133331938195    0.41716470376970   -0.02935310295483
C         1.25527589934447    0.10044028694988   -0.41023583793480
C         0.78885430796563    0.35538971774675   -1.82178962807397
N         0.43709686846435   -0.50210988710554    0.38617695113248
H         3.26778111014980    2.03070302835389    4.30876278452093
H         4.97963792372924    1.75638541332008    3.79890800905680
H         3.75227432441700    0.41704283246834    3.66825206536518
H         2.78995362735706    1.56836219312327    1.69239372642278
H         5.67658985622095    1.35535547529629    2.07344544403626
H         6.20098669823417   -0.54397699052775   -1.88256068266837
H         6.20396506137853    1.01991090249534   -2.44337834283441
H         3.77781728908162   -0.62648560386196   -2.01383981673535
H         3.89974486032409    0.91706638831221   -2.86686067862343
H         2.74623454892541    2.60768481890436   -2.02020127732460
H         4.14658872147574    3.16069860217408   -1.10407235423551
H         1.63696560215383    2.62728612371451    0.27508471699163
H         1.63535924897373    4.43824342520829    1.37279718456764
H         3.11588297125919    5.06542399421181    0.71520708800394
H         2.98453594606066    3.83759618400267    3.18202214264425
H         5.55511641659795    3.63011133552540    1.82337614631830
H         5.11423522864556    4.49177255683049    3.17517254105354
H         2.85982066406622   -0.07161838574370    0.79737706383328
H        -0.10607293892271   -0.20994877380825   -2.06807611246423
H         1.58881739315831    0.38525907841288   -2.56722878570516
H         0.52928104330854    1.41888204378801   -1.81801320301135
H         0.84042475622769   -0.85671581764762    1.25485763456626
