39
 energy: -52.268886035008 gnorm: 0.109098547352 xtb: 6.4.1 (79825abcba525fcdf90b791dcacef51065a7a4e7)
C         3.92124851392238    1.55396611450123    3.67306494143156
C         3.61829675485091    2.04813072879388    2.25246185256979
N         4.78891868408449    1.63778605952573    1.49659193733835
C         4.78465166197907    1.19729810751090    0.19895764053391
N         5.92281114781400    0.94705695668275   -0.37743520876851
C         5.63948450527663    0.51501680140006   -1.74486449936672
C         4.16600568701239    0.13371012470863   -1.76370412372408
C         3.54185724617887    1.03547581694848   -0.69784046583685
C         3.04789872519726    2.45545534496740   -1.10180719504723
N         2.38851779528388    3.25402172257402   -0.04810408572537
C         3.30663505811058    4.08428256625520    0.72403424536648
C         3.52638530828939    3.60023173494421    2.18566994233263
N         4.85469704425577    4.08395812257421    2.63252771470598
N         2.43479571843342    0.30006801633473   -0.07171981660145
C         1.14069237458950    0.04257410768335   -0.43600263695126
C         0.62871227159977    0.71542962514433   -1.68507198689473
N         0.37884716219614   -0.81441130995213    0.15722988959624
H         3.03065704684502    1.84316315405266    4.23737865303390
H         4.80920957502750    2.13186797605753    3.94541621700791
H         4.09804169458366    0.47571441938913    3.61033210924979
H         2.74546917409056    1.55236906314849    1.82080273388342
H         5.67938080305658    1.84430224041141    1.94538814844130
H         6.35428904159545   -0.27303801007331   -2.01102292855603
H         5.85518468223103    1.27606758993137   -2.49806740670266
H         4.03621668894097   -0.91787368122266   -1.48106729099227
H         3.89865353928907    0.22061298005927   -2.82455609069523
H         2.45967104208537    2.39875322419464   -2.02462349131418
H         3.94723457007114    3.05764093538121   -1.28306455940955
H         1.77456428717485    2.70376097663383    0.55017538823308
H         2.93628585307832    5.11835296747713    0.73780147582709
H         4.28206256814310    4.15168155696423    0.22559718129853
H         2.69621293886475    3.88008301003040    2.84841981447209
H         4.94276377858548    4.16900477709877    3.64810094373107
H         4.92401124657546    5.06013027128240    2.35204815340086
H         2.75937218311972   -0.29519626416700    0.68366496309558
H        -0.34217150134638    0.31352726147974   -1.96259425921803
H         1.29225593790154    0.44793316300177   -2.51251872474668
H         0.52218255047922    1.80490830613913   -1.69487394991368
H         0.68902389677216   -1.09817831030682    1.08797774107754
