39
 energy: -52.265542417059 gnorm: 0.121541054240 xtb: 6.4.1 (79825abcba525fcdf90b791dcacef51065a7a4e7)
C         3.97812604935306    1.47564525900570    3.54561608710833
C         3.68805615494712    2.11479226085299    2.18126931196333
N         4.85192897857138    1.87177333091076    1.34675171832360
C         4.81979559244339    1.22319586133763    0.14001342022727
N         5.90293685691165    0.77408995811730   -0.42156048355196
C         5.65384295174979    0.18682012388708   -1.73680263093263
C         4.19663413611279    0.49841135243952   -2.04719416419608
C         3.61197029230586    1.19322870423328   -0.81666378746730
C         3.03551245263300    2.61564364618167   -1.07735152521985
N         2.32103878507608    3.23664553869326    0.05696136959002
C         3.09172549949374    4.16481643542927    0.87733369238517
C         3.41545284128826    3.64190919956269    2.30587942629646
N         4.56055515321157    4.35204844982733    2.92436797538355
N         2.58515738455197    0.37587042819565   -0.15634747209164
C         1.34032244535219   -0.10653729087932   -0.45863427405617
C         0.47656866375068    0.61664641235820   -1.46161340920078
N         0.66899698081256   -0.97288916585461    0.22365123400279
H         3.15846613300092    1.65799037709062    4.24572031386017
H         5.00715906343611    1.63869528549698    3.87897229980546
H         4.07351416547152    0.39665810584713    3.38907285561085
H         2.84869353983013    1.55913602206502    1.75623549104874
H         5.78431330862475    2.22033117324808    1.56159270623775
H         5.85630150868220   -0.88792395292605   -1.65463257020223
H         6.42026794123305    0.55964639023657   -2.41990788970149
H         3.67183043872704   -0.42433797207966   -2.32227964517604
H         4.20053431915036    1.12143064929431   -2.95066963070688
H         2.38055250476920    2.43960764476226   -1.93808124817723
H         3.88789423200493    3.27004340630797   -1.29982160225912
H         1.63167244241004    2.58949911422411    0.43595962377585
H         2.42313185652097    5.03573024103074    0.91111752865267
H         4.02725182500560    4.40564409391564    0.35653287716402
H         2.51486649486564    3.80299057763389    2.91393971102363
H         5.39121502316477    4.25702894074471    2.33500124847505
H         4.70587178635350    3.93038671062950    3.83950171397332
H         3.10749076841065   -0.33031782707069    0.35233868322315
H         1.01760101052175    1.06762525252605   -2.28929783091464
H        -0.03349551037629    1.43229448343658   -0.94097397562196
H        -0.29514757848325   -0.01300000241790   -1.91593476415829
H         1.22490906202730   -1.39531625012855    0.96899813182581
