39
 energy: -52.265854826033 gnorm: 0.114225321264 xtb: 6.4.1 (79825abcba525fcdf90b791dcacef51065a7a4e7)
C         3.87611742224366    1.76318409357388    3.90467395207242
C         3.65107734856437    2.10723952327651    2.42647424838408
N         4.62218683271805    1.33132604024690    1.67482115269147
C         4.73230164901319    1.24521968172441    0.31160326224504
N         5.87581276545717    0.98448799567073   -0.24934028710453
C         5.58838458878551    0.68505364606667   -1.65095352011933
C         4.08883239220028    0.51402940157586   -1.84839580302234
C         3.49655014955788    1.18272304497085   -0.60708257181216
C         2.98897634711006    2.61503797204516   -0.94526711484645
N         2.14540956240208    3.23193843213571    0.09905591655798
C         2.66614755471842    4.07141099075054    1.17264229266563
C         3.75550996602253    3.64288582677074    2.19666864280876
N         5.10273041553981    4.04169507113573    1.72334700408593
N         2.44703823135342    0.39350938102463    0.05178273876638
C         1.43633391167149   -0.13901767350244   -0.70227317700105
C         0.73225590169052    0.66646634781802   -1.76552389823068
N         0.94629911504518   -1.29362721034018   -0.39649594666824
H         3.10458337934247    2.09058116587598    4.60666000657074
H         4.83515139869018    2.03822768161489    4.35325557116560
H         3.89271210108316    0.67085202380253    3.97065285053184
H         2.65668664920344    1.76941586445551    2.12481300794801
H         5.58649440270231    1.29123563650147    1.99961867528341
H         6.15724648145499   -0.18536919350431   -1.99963165968993
H         5.91490151637572    1.58864879447322   -2.17051294250576
H         3.91266935867741   -0.56791655981196   -1.81811733327230
H         3.70449305766057    0.88102165469852   -2.80862293039080
H         2.41953778391216    2.63543314648072   -1.88129094337045
H         3.88839391881383    3.19220904484093   -1.19468294217059
H         1.33903569355454    2.73706580762560    0.47658258417702
H         1.89011930878784    4.31134054896476    1.91214457323477
H         3.08066358296570    4.98127012690284    0.72012294390138
H         3.56686969818726    4.12132346721433    3.16736558145471
H         5.31904708269038    3.44318013349069    0.92249456316731
H         5.75667993821141    4.05291945051431    2.50348118276418
H         2.92480371831180   -0.29424935453921    0.62538860787011
H         1.37923103073287    1.04484253266549   -2.55255253232507
H         0.26920624588145    1.57764191559895   -1.37583586330821
H        -0.01202316221622   -0.07978625411592   -2.06143639202358
H         1.43430707506010   -1.83666631767206    0.31763404513141
