39
 energy: -52.264051634863 gnorm: 0.116688122345 xtb: 6.4.1 (79825abcba525fcdf90b791dcacef51065a7a4e7)
C         3.89006935654589    1.55587880189046    3.76138892762290
C         3.60436166758126    2.07755893258713    2.34706488065893
N         4.68609236456546    1.54827910671841    1.53478455752444
C         4.65463522141314    1.41346440939897    0.17142912260618
N         5.78257455053364    1.31856087329236   -0.46810394609321
C         5.50973175136873    1.07837949589249   -1.88396596373744
C         4.11149963785700    0.47685466881831   -1.88187619837177
C         3.40938978341643    1.13252597655809   -0.69194139096763
C         2.80127632293574    2.50605739947968   -1.10076338860143
N         2.34436209069975    3.39406689601312   -0.01197956381614
C         3.41636399513079    4.05266352416436    0.72662206398498
C         3.53756372510622    3.62698102712500    2.21762149781532
N         4.80567069830349    4.17214250797520    2.75872112673914
N         2.55148179702039    0.18547442533635    0.03298905884647
C         1.44836908170767   -0.39115588895239   -0.53652685027473
C         0.76753168868119    0.23804908758308   -1.72631421090154
N         0.67391037950669   -1.27555363026156   -0.00284968228396
H         3.46749119196941    2.29361948985461    4.44870575579750
H         4.96273827245772    1.58049312873674    3.97445265262413
H         3.57742396254671    0.52330198762995    3.94538873372715
H         2.68297812237612    1.60827533305050    1.99384757368698
H         5.65894707187250    1.74909968267907    1.75887064864017
H         6.38237836721401    0.51112103028382   -2.22968540313578
H         5.52788103389124    2.03514652773146   -2.41056537175322
H         4.16803499091599   -0.61286074046153   -1.77287464536576
H         3.56860571941169    0.69767859895649   -2.80974426874827
H         1.85131488886513    2.43225927999460   -1.64200636475855
H         3.54684125781927    3.02422325479664   -1.71714293230557
H         1.69520886615866    2.86597523642627    0.56886758976878
H         3.33257790137995    5.14482208821565    0.80920063507354
H         4.39209087262232    3.86906689971247    0.25897872353151
H         2.79104825849933    4.10929796346319    2.86324159688962
H         5.54199722547496    4.05465911501752    2.05843649670474
H         4.98069489450857    3.74062437632586    3.66400778740257
H         2.95170681985305   -0.12566028914870    0.91236992906749
H         1.47657420120100    0.35461541266360   -2.54168555520554
H         0.33829180610361    1.19544947890701   -1.41704042754979
H        -0.03229117156397   -0.49856511867364   -1.85316600018975
H         0.77733215243837   -1.61575674568850    0.95453772720510
