39
 energy: -52.271333798728 gnorm: 0.096733397259 xtb: 6.4.1 (79825abcba525fcdf90b791dcacef51065a7a4e7)
C         3.63711454632132    1.57107387097635    3.65097516800668
C         3.59483344098157    1.99322655674124    2.17649527188973
N         4.75272016570449    1.52057347884605    1.43759396282374
C         4.85151793257545    1.16795329021943    0.11706353890405
N         5.89091488005336    0.62652277600005   -0.44575378627952
C         5.58892984690280    0.43328914508744   -1.86288516572357
C         4.07672621138821    0.37315863669341   -2.02571646537839
C         3.61883480548928    1.17680017636309   -0.80780689163429
C         3.06899349584016    2.57646698600800   -1.21046475128909
N         2.57972839612565    3.51158440301341   -0.17656109045009
C         3.55676422424088    4.12600735468329    0.71582637681970
C         3.50518922524111    3.54679032286654    2.15833180741464
N         4.41795966308043    4.22425517696805    3.11015985584309
N         2.68182198829879    0.31139797570328   -0.07875066946241
C         1.35994106028298    0.04820982504311   -0.31764684625629
C         0.58521466955114    0.40426475070107   -1.56185596546482
N         0.65163432040223   -0.61294179239204    0.53554544647691
H         2.70285039394860    1.66849186700553    4.21034827519413
H         4.39580434559581    2.20779254153291    4.11530236265648
H         3.97499292514778    0.53172714892667    3.70940924924999
H         2.69492988165235    1.50245262806107    1.79800916838609
H         5.53761236670081    1.25131719165360    2.02787782387212
H         6.22094462808925   -0.37247544342423   -2.25546249907400
H         5.88247141780762    1.34692540550498   -2.38455711452381
H         3.71332924039830   -0.65430553531473   -1.90399018591834
H         3.69940191497772    0.85350346993845   -2.93749023116573
H         2.23140776617418    2.38400867978978   -1.89033739058762
H         3.89014856472663    3.07670191594637   -1.73938444793932
H         1.76801661107807    3.04364046829440    0.22320956720902
H         3.36558863061083    5.20589476285605    0.77863351618493
H         4.58925188407082    4.02347581202135    0.35819882403540
H         2.54106966303125    3.80795774681776    2.61550281472643
H         4.57691898874725    5.20617835138063    2.87154620194312
H         5.30294264908431    3.72623269337983    3.03829870921620
H         3.09884218302861   -0.26054215613658    0.64876170685499
H        -0.26031478909059   -0.27687329591157   -1.60971324269946
H         1.13021691115485    0.41985345538509   -2.51013978543974
H         0.09221931465997    1.37921548241562   -1.49232097364912
H         1.15300703918481   -0.91817419121593    1.37129867841894
