39
 energy: -52.261176414287 gnorm: 0.124154245393 xtb: 6.4.1 (79825abcba525fcdf90b791dcacef51065a7a4e7)
C         3.94605974309374    1.59803984356667    3.86132978975282
C         3.62536857784947    1.97757524797674    2.40970945130099
N         4.65583047379369    1.26812490541506    1.67153179644444
C         4.77004031273425    1.08324390757018    0.31850639785915
N         5.91135871199540    1.08275946328335   -0.30410779555086
C         5.72801481787686    0.95596032103312   -1.74878856841215
C         4.26326243720259    0.55606082539159   -1.85588848574379
C         3.56398552591274    1.16094235112655   -0.63771850374092
C         3.09111159809498    2.62772461317172   -0.85786850442982
N         2.09174290792180    3.20535689425680    0.06429464037404
C         2.58259782717516    4.05551003667971    1.14354023017098
C         3.68259057846301    3.50007891822269    2.09247989298698
N         5.00952260902107    3.96776847270906    1.62492989041477
N         2.51058302329344    0.30710141925365   -0.07226668886709
C         1.24287824590311    0.01452124483961   -0.49774288030711
C         0.89766508552511    0.33696059033725   -1.93018595390780
N         0.33870031893140   -0.55991146638992    0.22284458996184
H         3.22114889703372    2.14278232357004    4.47206536757968
H         4.94441542054979    1.94645382250838    4.14153375291282
H         3.91059742691250    0.51599204538667    4.02174467705397
H         2.67949451827976    1.68301240559663    1.94874068919415
H         5.47602791789935    1.20311513122657    2.27156482651451
H         6.30730145133591    0.06683100741317   -2.02572228049601
H         6.01069530805400    1.86942689613981   -2.27671852816170
H         4.22705997965841   -0.53849423109697   -1.91242049864287
H         3.94308552030912    1.02021294349687   -2.79742219612694
H         2.61158812938459    2.70391285207861   -1.84024798728945
H         3.95176520979848    3.30840693772497   -0.87315255598278
H         1.59066932059289    2.39470323134385    0.42405848969022
H         1.66248450099977    4.27527554162063    1.70188085077144
H         3.08403766671868    4.93357181683170    0.71691797269456
H         3.60713255704901    4.01112975393802    3.06195058046599
H         5.27849979785554    3.33950536535970    0.86380282812694
H         5.65523988390910    3.90582691968193    2.40953026607662
H         2.94356581376961   -0.32638333358012    0.59220195719859
H         1.54429524655559    1.09907008545687   -2.35705592501438
H        -0.16012086889423    0.58546209910956   -1.80429497262947
H         0.90589482838128   -0.55600278376954   -2.56339772546179
H         0.65877433282109   -0.69395592660205    1.18337027471897
