39
 energy: -52.257360008782 gnorm: 0.120579756282 xtb: 6.4.1 (79825abcba525fcdf90b791dcacef51065a7a4e7)
C         3.90634830797780    1.73516118575021    3.97933644036633
C         3.64211837972715    2.00744075086315    2.49268317444858
N         4.65144451942234    1.39336333985212    1.64755156829199
C         4.73027241442548    1.26916911841393    0.28510356489687
N         5.81075600054047    0.73481660250857   -0.20200933306238
C         5.66598165758542    0.64256732498371   -1.65367251901072
C         4.21244681518571    0.92902970055269   -2.00305097949168
C         3.53406493755475    1.30765000660410   -0.68576107917942
C         2.80642650757048    2.67050811513714   -0.87729721383129
N         2.07268444934838    3.15159397286882    0.31138301956630
C         2.70234980043221    4.08949678012234    1.23460013089811
C         3.73335403089813    3.54400680770468    2.26340780906536
N         5.02930621910871    3.98476587409537    1.69391284431528
N         2.62051442166972    0.24809785836371   -0.23719485628391
C         1.39322653878219   -0.11990610416675   -0.71890650360213
C         0.88617783451848    0.20906822888946   -2.10082904905512
N         0.63316392755215   -0.81559249000458    0.05896383395102
H         3.29912182541092    2.32695173218031    4.66947990035195
H         4.96650269356821    1.91859674565595    4.17693374147915
H         3.64440837062872    0.68221778392896    4.12256916467385
H         2.65452521020177    1.68045017468925    2.15850643321377
H         5.47269407503813    1.13181831019287    2.18989197880354
H         5.88233001370366   -0.38316575276501   -1.97597868332112
H         6.49258273676988    1.22196611784246   -2.07088611055376
H         3.87674277446206   -0.09025392531070   -2.22870770889256
H         4.07640617951371    1.70586106055316   -2.76624306839660
H         2.16662239897821    2.58587667498463   -1.76290721674216
H         3.59777170950445    3.38458039854815   -1.13837234481354
H         1.54906499778914    2.42142616236365    0.79132235246773
H         1.94325250471347    4.74410304620080    1.68394586629652
H         3.20903977959430    4.80891960812975    0.57875181441523
H         3.65249917815177    4.11343589112252    3.19933157450404
H         5.36678675200144    3.42997128727800    0.90354108328123
H         5.74763620017009    4.01207331809514    2.41477458304740
H         2.92666547413381   -0.09611189467212    0.66728664996370
H         1.58168838673492   -0.14162268934228   -2.85874749634683
H         0.76366446305024    1.28147614181232   -2.27815473868226
H        -0.16206643543278   -0.10336062525611   -2.14533330368547
H         0.83765824318274   -0.98869443827742    1.04448028250494
