39
 energy: -52.271136813657 gnorm: 0.108132809600 xtb: 6.4.1 (79825abcba525fcdf90b791dcacef51065a7a4e7)
C         3.74778072409982    1.65031271561370    3.80846125350839
C         3.61725410493421    1.96824296992822    2.31314365516114
N         4.65984724382040    1.19925662482768    1.65607643674593
C         4.82128009421325    1.21172323769284    0.29530950184489
N         5.99339332491600    1.17625094778817   -0.26607152789575
C         5.71387494856783    1.05522211828085   -1.69576277110913
C         4.30778812403142    0.48665841183126   -1.82438896956754
C         3.58972580664143    1.10724706939811   -0.62519582015202
C         3.13389408251659    2.55843004294189   -0.95657389115957
N         2.20725783338870    3.17768722718890    0.01329595206685
C         2.64365451767763    3.96804693136126    1.15931490294036
C         3.77734177178459    3.50383594006170    2.11756102990243
N         5.10761266603698    3.95577942335079    1.64405117980608
N         2.52295689178623    0.26881340172433   -0.06175107290153
C         1.24411068965239    0.00175220017382   -0.47033306099817
C         0.74756749440526    0.37298985679292   -1.84534573627287
N         0.37928013655833   -0.65728857357210    0.22572033661402
H         2.98189887524736    2.16874309393129    4.39146467337715
H         4.69971043338223    1.77540063357768    4.33267825175045
H         3.55627950142515    0.58886170609946    3.99411412706354
H         2.63293038984749    1.68369061200844    1.93357286123973
H         5.54925247375887    1.12655236690932    2.14664977103920
H         6.48849948828403    0.48999571132868   -2.22801473458066
H         5.78408284776471    2.03866512561379   -2.16581616465849
H         4.39417398160081   -0.60379733351036   -1.74692275947511
H         3.85820290352412    0.88713970536886   -2.74195316235205
H         2.52348064676269    2.57570002754554   -1.86647171156035
H         3.97100267061101    3.25389053290787   -1.09753696615938
H         1.56173318916303    2.47984035535537    0.37931754218130
H         1.72564933361834    4.15984610521349    1.73126701670383
H         2.96089639328728    4.94784639743489    0.78011633753676
H         3.70070154210681    3.91810253054602    3.13208049946897
H         5.41433510702297    3.72634556091629    0.69554756332045
H         5.87083894870397    3.58911793649351    2.20923283156060
H         2.78897654969457   -0.10341349019028    0.84432634372252
H         1.40910415383233    1.04866129545856   -2.38106653177734
H        -0.16170842766982    0.93936655109684   -1.62410514718855
H         0.57185098497288   -0.49116184626498   -2.49401668477108
H         0.68507428710828   -0.83541257387240    1.18373216207406
