39
 energy: -52.267300034647 gnorm: 0.112874728229 xtb: 6.4.1 (79825abcba525fcdf90b791dcacef51065a7a4e7)
C         3.58577893914689    1.76301299154669    3.82182550440006
C         3.56156422726947    2.07705580971750    2.32019895447557
N         4.54581943056707    1.25862802345984    1.63354373042963
C         4.72634107440386    1.18756877025242    0.27698001878036
N         5.91622682526697    0.98291652730390   -0.20524990697929
C         5.82276944156766    0.65179299000230   -1.62596045175168
C         4.33026192862984    0.56353530283214   -1.91148000953223
C         3.56578001071557    1.17566937385900   -0.73688765278062
C         2.93495902908233    2.56809396880914   -1.03141196567703
N         2.13827124392288    3.22362124999998    0.02611071870840
C         2.87351060336018    4.14368218457620    0.88714550884882
C         3.76026307236145    3.59514068434033    2.04115873712251
N         5.18442968456120    3.97911327760845    1.89149365404096
N         2.60146355207470    0.25223771096045   -0.12385858060631
C         1.29101965869787    0.00539675346431   -0.43291341474447
C         0.64258995450238    0.54535388253866   -1.68312044719469
N         0.62701281123094   -0.84205501059688    0.27960141555033
H         2.87146193646520    2.43634031281255    4.30309422934175
H         4.60055730444391    1.94221615018239    4.18888369543092
H         3.34097673649063    0.69714090721027    3.86432881670136
H         2.58319442195730    1.82328827004526    1.90507035061551
H         5.41868488874996    1.22237649493822    2.15678504577509
H         6.30785236324334   -0.33048233435048   -1.57452153657960
H         6.41707210655028    1.25799422699584   -2.31324778422672
H         4.03830628426201   -0.48886572091901   -2.01032958149350
H         4.13035116875814    1.02577260302837   -2.88657412323592
H         2.31739689301348    2.48181908207037   -1.93251711806820
H         3.72890631760368    3.29140300772662   -1.25670820792573
H         1.56915991478751    2.59242649390766    0.58768848709897
H         2.17922599500325    4.90828202702416    1.26131875205562
H         3.59297086799137    4.64725436295763    0.22894118083605
H         3.46854039040677    4.08857561466313    2.97826071927224
H         5.75789955122379    3.32920681332425    1.34823353092841
H         5.42069637141954    4.03574593155169    2.88010687516761
H         3.02526542179216   -0.51554220915501    0.38722025225353
H         1.20437872404962    0.41526103239199   -2.60433087065109
H         0.39681840678151    1.56101009974488   -1.35977627025898
H        -0.27371625317739   -0.04577158397433   -1.77987830763661
H         1.11963568438982   -1.25646964389863    1.07244950765775
