39
 energy: -52.264434770173 gnorm: 0.103065348284 xtb: 6.4.1 (79825abcba525fcdf90b791dcacef51065a7a4e7)
C         3.81013625418208    1.56616102528474    3.80525067669553
C         3.64042723831186    1.96212140560328    2.33266595373667
N         4.75797576921032    1.46046408387259    1.55195925572839
C         4.82801608238426    1.21845685702710    0.20495166563523
N         5.91623526041630    1.01355802628830   -0.47626184062905
C         5.57100933729197    0.85970060752629   -1.88833212900123
C         4.10291754159019    0.45911939050456   -1.92195818835611
C         3.56967949481726    1.18152567910555   -0.68397824863854
C         3.18923240019913    2.65906616911361   -0.99326791456839
N         2.25998151878165    3.35157494372947   -0.07691313316143
C         2.72020755783735    4.10982140083212    1.08141507818556
C         3.56764797589645    3.51399754556456    2.24150684691159
N         4.94838827038062    4.05385582488807    2.25544975625882
N         2.58418082278441    0.30230191396715   -0.04039850669361
C         1.39008924908610   -0.16178631295489   -0.52255615869957
C         0.66378360334982    0.57697390171770   -1.61879786693010
N         0.75518803575555   -1.14783439031701    0.01722770354658
H         2.83727149913147    1.79956342210839    4.24604035219650
H         4.61587259678458    2.05248523577475    4.36283324712308
H         4.07983696754540    0.50902341738096    3.89208126452308
H         2.65225755416680    1.65195584495224    1.98444879345296
H         5.65067705436959    1.31884120382143    2.02101908862318
H         6.19851535620273    0.08258188318993   -2.34125475462607
H         5.82700513211435    1.81836664675700   -2.34491187792476
H         3.92516088495285   -0.60170559548860   -1.70839276070911
H         3.53711504343166    0.66461872657730   -2.83960394572348
H         2.82321351956678    2.70741365753736   -2.02501863603849
H         4.11512254535284    3.24719250843699   -1.02675700003483
H         1.44898399965838    2.79106473434666    0.17955410895075
H         1.81340661912149    4.54123288853604    1.52666314567686
H         3.31486876790016    4.93425815705692    0.66774488759940
H         3.09976178025248    3.90357235268590    3.15586687044626
H         5.40577944879465    4.10350522170392    1.34182734631574
H         5.50087020815540    3.69531503397254    3.03172130062893
H         3.16288469258431   -0.23933791047953    0.59365492351215
H         1.31711697733066    0.47634778260370   -2.48146194609782
H         0.38072069396755    1.60225487606649   -1.36348047350465
H        -0.20556141663124   -0.07972434768020   -1.72554578435530
H         1.10904984623974   -1.49392580886121    0.91055151453057
