39
 energy: -52.266836793562 gnorm: 0.109839184595 xtb: 6.4.1 (79825abcba525fcdf90b791dcacef51065a7a4e7)
C         4.13198928221669    1.94966386411559    4.00956957349353
C         3.73127929573722    2.06969216403763    2.53338656867384
N         4.62240691409208    1.21622821514118    1.76685632832277
C         4.75211780742172    1.11916147913699    0.40610075420015
N         5.87794278183796    0.78850187633028   -0.15375522742037
C         5.77940716411729    0.79086479950168   -1.61220669817564
C         4.29199215929956    0.61181352715440   -1.88132895770623
C         3.61172097976769    1.16730928965165   -0.62934510252472
C         2.93647087521659    2.54071548481875   -0.91450950269736
N         2.02452893622283    2.98014355902051    0.16161622643075
C         2.50441572131002    3.91792449977475    1.17094548281757
C         3.66157849813129    3.57704412192043    2.15265274201199
N         4.90376530804322    4.08747975905706    1.52455041860027
N         2.54709077644249    0.26026771929819   -0.17959507897210
C         1.33174426732489   -0.06098684241698   -0.72129328535931
C         0.76867647918583    0.69057628545838   -1.90160678572738
N         0.52900201508108   -0.93363030969809   -0.21055339244398
H         3.23526561047659    2.33050602666139    4.50563807179228
H         5.01853140178946    2.55081908144235    4.23155176582996
H         4.35907953207857    0.93458927145138    4.34996865982142
H         2.70402303845841    1.73422785040543    2.37169093456893
H         5.56705996939006    1.26059895297295    2.14454880848854
H         6.39466883708700   -0.00264045575931   -2.05336279713777
H         6.26103953125553    1.73660085768410   -1.87037923974904
H         4.18760742149619   -0.47440244249544   -1.98993816815209
H         3.96821804160417    1.13398553642716   -2.79069296340811
H         2.50318304478793    2.57339138056481   -1.92049697603296
H         3.67959645130189    3.34517549763514   -0.98447480605845
H         1.63649754727367    2.16664624162341    0.63629283736018
H         1.61961579606580    4.04121394011878    1.81014691307930
H         2.79967451043169    4.84614605747073    0.66530930819686
H         3.61942443973331    4.16515254767742    3.07952479255969
H         5.17864382255491    3.54230367817147    0.70381750965487
H         5.57166535606467    3.83038875767229    2.24856633645772
H         2.89320544660162   -0.50639895157557    0.38849159941443
H         1.42417094332230    0.66383804377160   -2.76807749825942
H         0.38202625816708    1.71007054977271   -1.81416706079477
H        -0.15795975148815    0.15594414891836   -2.13381842407276
H         0.93019927456573   -1.31695250109582    0.64684368138374
