39
 energy: -52.269744951639 gnorm: 0.111931299337 xtb: 6.4.1 (79825abcba525fcdf90b791dcacef51065a7a4e7)
C         3.62757113192970    1.57729980222531    3.73000880151580
C         3.62839869169897    2.03972194936222    2.26704720571894
N         4.66784349132931    1.37326301838634    1.50189050851892
C         4.72074343705458    1.30691303640664    0.13415446318232
N         5.85191057193068    1.27510669875523   -0.50592805732100
C         5.57219258794272    0.75250307434687   -1.84213120238093
C         4.06878929860265    0.59400922176382   -2.01974816311193
C         3.46746984831584    1.21441654446597   -0.75787747211654
C         2.91903867572531    2.63711217562224   -1.07202137986763
N         2.47731340954048    3.31247353565070    0.16553570694511
C         3.48344391061764    4.13927855459508    0.82323233530016
C         3.76930389743347    3.58948752810936    2.24976245395458
N         4.99600036246579    4.20499475364249    2.81052245648502
N         2.43931662901482    0.37765810742083   -0.12449513167237
C         1.24140829257998   -0.20273085062863   -0.44367032766005
C         0.51841994962658    0.11074219457304   -1.72977098521779
N         0.75025245883076   -1.13814817566865    0.29829822863295
H         2.69282005468477    1.80900702230130    4.24749332963913
H         4.58523044390629    1.80705670197509    4.20616111910223
H         3.67459176752818    0.48387841724237    3.73606580437481
H         2.67329261723205    1.71753404923009    1.84525987792604
H         5.61973975700372    1.53871814652809    1.82361689746403
H         6.10404834636811   -0.20626607927441   -1.81553454023900
H         6.16059742328726    1.33800712934886   -2.55206376117448
H         3.86909003290895   -0.47955605346324   -2.12042121222699
H         3.78014642870687    1.15427576518358   -2.91820398908978
H         1.99568024383107    2.47159125828298   -1.63843898100872
H         3.50829118247237    3.25370409068981   -1.76258821951083
H         1.63560552503666    3.88098296288298    0.08814709693523
H         3.21090790148526    5.20299219329014    0.79344843134401
H         4.44813354873396    4.11381946640797    0.30057882246400
H         2.90677166019009    3.92155073446705    2.84349004893838
H         5.79579405927604    3.66078408411223    2.47804320073200
H         4.99581490798325    4.03456522128829    3.81418527111763
H         2.82320108446647   -0.05592268143402    0.70913310288043
H         1.28222244158858    0.46500927771592   -2.41698274879659
H        -0.28865482586450    0.84767041555628   -1.68416668849459
H         0.08781734865004   -0.80596888718203   -2.14525943413456
H         1.29564699010158   -1.40943849819571    1.11803675119457
