39
 energy: -52.268064555657 gnorm: 0.107733445716 xtb: 6.4.1 (79825abcba525fcdf90b791dcacef51065a7a4e7)
C         3.84631584390059    1.54828510071746    3.87143563150119
C         3.69605317993443    2.00008444007987    2.41287811133820
N         4.72792367673790    1.48259464186936    1.53110413399853
C         4.65730458231857    1.35506243906774    0.16851428914941
N         5.76373622157542    1.33506726187028   -0.51388265242945
C         5.48868441261506    1.00109117504753   -1.91016414991331
C         4.01979751243840    0.60650464914243   -1.96984906941873
C         3.39632528945543    1.19285690930667   -0.70245749490251
C         2.64650595417519    2.51766835283400   -1.02829737833975
N         2.45687305448720    3.25543875293648    0.23760780484153
C         3.56983621488216    3.98948005340459    0.83003194015456
C         3.75307947519974    3.55196854307493    2.31124086475964
N         5.06579288822000    4.10970613003417    2.71595981570239
N         2.38821996340318    0.33469011071519   -0.06550353001647
C         1.22008770899624   -0.19098987035968   -0.54803453236203
C         1.04310098347237   -0.19872297527044   -2.04591581282834
N         0.37946700580942   -0.83890169125883    0.18703286830150
H         3.22347040112899    2.18773426650393    4.50263003012048
H         4.82762810526589    1.80165961727750    4.28307651673557
H         3.47273825933092    0.52770432245520    4.00055810291513
H         2.67176780682132    1.72204959891150    2.15312187563816
H         5.67682097657448    1.66217155172748    1.85411467161899
H         6.08466932375979    0.13848652469282   -2.23192714308562
H         5.61635751779532    1.93059283922852   -2.46941876604444
H         3.91436559175828   -0.48038249793985   -2.07043585872581
H         3.47019818272617    0.98239064500376   -2.84225177338471
H         1.63932162230072    2.29309597797557   -1.39703011962238
H         3.17065657222222    3.12889190332507   -1.77392367769865
H         1.60650095585242    3.81376803604456    0.18469430229482
H         3.34512624959174    5.06376469764967    0.78456107132857
H         4.51337576990277    3.68007970076744    0.36265041491246
H         2.95716869840518    4.02426068977600    2.90302330218280
H         5.81824058730097    3.68008561449561    2.17224450507078
H         5.16733660512704    4.09247213506836    3.72876639576520
H         2.58652435371809    0.35696454024484    0.92972249274274
H         1.53500841540696   -1.09262391417321   -2.42025204702321
H         1.55474240786505    0.63158524890229   -2.54121770571633
H        -0.01603852481646   -0.22049009768476   -2.32188349290077
H         0.46187080803676   -0.97966219144218    1.19520992288149
