39
 energy: -52.261823382712 gnorm: 0.114804277854 xtb: 6.4.1 (79825abcba525fcdf90b791dcacef51065a7a4e7)
C         3.70509312638018    1.52509314717542    3.83626418470630
C         3.68710355443462    2.00789056679465    2.38001057200209
N         4.76278235779772    1.35113927143710    1.65774287422358
C         4.82975861735651    1.24313626063749    0.29328248138883
N         6.00519861747189    1.20972932333226   -0.26122735994604
C         5.74497536745680    1.00739562471548   -1.68535533478892
C         4.29401889280876    0.61232496058684   -1.92101192552954
C         3.61865566569542    1.13900435555541   -0.65400706021802
C         3.01998636058987    2.54941165541630   -0.92945641943871
N         2.14658202658660    2.98330914950738    0.18035417940737
C         2.64791136856238    3.95911986586213    1.14208819451691
C         3.74822987540905    3.54748937030555    2.16132016248586
N         5.03054113833004    4.01542011755138    1.58269784175525
N         2.55405260234300    0.26874799688037   -0.13659896137072
C         1.24641184237765    0.04199078431714   -0.47180841965117
C         0.73884974501570    0.42880647414844   -1.83847837533881
N         0.39613747304893   -0.62241408958484    0.23696279781601
H         2.87779910353593    1.94062026365437    4.41777933027665
H         4.54413999422954    1.82159775304557    4.47242925125015
H         3.65604404110541    0.43300548973894    3.88876833781403
H         2.74534541713971    1.67706445767016    1.93550758123565
H         5.70540022378413    1.17658298265834    2.00124167978656
H         6.51149502529023    0.28381377655248   -1.98816409767497
H         5.94184149568680    1.95620464603815   -2.18938376870940
H         4.13913733085958   -0.46735558715028   -2.03440895255392
H         3.89478875746606    1.16646033390409   -2.78007273610515
H         2.48211059829137    2.50651755933735   -1.88322087037992
H         3.86297556064496    3.23148797920364   -1.09806182101630
H         1.81817940246504    2.13847596896508    0.64519043813352
H         1.77867163962238    4.42934959713639    1.62162542688419
H         3.22089854969616    4.71730764467928    0.59320027976921
H         3.63666396802557    3.86013436681170    3.20848129876592
H         5.20803480604872    3.44933715751695    0.74937692712142
H         5.69965863630802    4.01198178051873    2.34993656469731
H         2.75518944309286   -0.27557400468568    0.69619942071625
H         1.50953472902417    0.43947801303436   -2.60469648735636
H         0.30614374941394    1.43342224763958   -1.83344569128071
H         0.01279007778175   -0.33875995237670   -2.12498772945507
H         0.76277416674521   -1.05840946954612    1.08461275247298
