39
 energy: -52.264011032139 gnorm: 0.117223497687 xtb: 6.4.1 (79825abcba525fcdf90b791dcacef51065a7a4e7)
C         4.06141412184574    1.75515208450174    3.79502622050141
C         3.69988658487543    2.11450608453333    2.34787243104351
N         4.72154215466696    1.56811458885556    1.47165671619011
C         4.60982237295394    1.30204333354066    0.13201968657852
N         5.70191464602838    0.95976062887679   -0.48477313075254
C         5.41322695915926    0.73844873985252   -1.90056831678372
C         3.90536916719809    0.56355836698226   -2.01311950399899
C         3.33361128830937    1.13756381271995   -0.71603868777829
C         2.84477926140770    2.58345363597004   -1.02258701440458
N         2.46694589728014    3.50567044940920    0.06807324469636
C         3.56710205154259    4.13687055361993    0.78898435854336
C         3.55644360945215    3.66217942697162    2.27004107844423
N         4.65319585358009    4.34889794740613    2.99366897399060
N         2.32243788990646    0.34999000490461    0.00207885022149
C         1.32670549925564   -0.38991798070193   -0.57650715834752
C         0.62477178852243    0.21160035156710   -1.76835328929315
N         1.07415728911484   -1.54770202720484   -0.06414742853613
H         3.20738597787248    1.79822498663229    4.47621540185427
H         4.91123708061294    2.29859891085822    4.21821306132543
H         4.30945606053599    0.68929225198915    3.77966504478908
H         2.70938557079038    1.79286100680961    2.01713177180146
H         5.68199917098565    1.76562437525285    1.74643291527364
H         6.04041661732046   -0.07792359997457   -2.27870262141690
H         5.71976220615649    1.64595722125679   -2.42545305268321
H         3.55254018221148   -0.47362999551935   -1.96506458537223
H         3.63792960302381    0.87783182588061   -3.03004842879694
H         2.04761753481032    2.53273056501782   -1.77277179558516
H         3.66235693326217    3.10708938875505   -1.53411319254173
H         1.71134052082073    3.21306549615188    0.68541187071504
H         3.56462001924461    5.21555713572536    0.58143013657994
H         4.50698126778031    3.85315655470589    0.29850053623640
H         2.60909742511782    3.88398904283231    2.78001753557229
H         5.52441788297715    3.84365346787200    2.81456605141158
H         4.47269118301901    4.36616703422921    3.99542001444214
H         2.74589581696022   -0.18773071402547    0.75163567693633
H         1.43222360417745    0.46529045740671   -2.45013208436658
H         0.06044557408313    1.11907432685218   -1.53481621109071
H        -0.01115036357764   -0.56452927586620   -2.20611382605208
H         1.83023524993910   -1.81809653710560    0.56692928172870
