39
 energy: -52.262860591708 gnorm: 0.117160887441 xtb: 6.4.1 (79825abcba525fcdf90b791dcacef51065a7a4e7)
C         3.91356112154032    1.68712452287774    3.89267166880277
C         3.67965115793307    1.95119433576644    2.39947214403095
N         4.65080526110585    1.18443727441535    1.63853779022477
C         4.73622135723211    1.18972218847492    0.27084674558206
N         5.89154380976292    0.89052700505988   -0.24487474263008
C         5.72096404365803    0.88078600960685   -1.69663340234703
C         4.22975925585679    0.73999989273531   -1.96751546300427
C         3.53858101319853    1.23882483639455   -0.69776970482145
C         2.99652547210178    2.68379582296267   -0.90212392529931
N         2.05408840730635    3.18176337362612    0.12092172699832
C         2.59748153374075    3.96668468548138    1.22414083728681
C         3.74290787015959    3.48775866106277    2.16094531971955
N         5.02880004563211    3.99920768397951    1.62898070715737
N         2.52747716872828    0.37523132241216   -0.07301998723948
C         1.29719335085803   -0.06436584640416   -0.48151065879231
C         0.91383448831689    0.45215038714545   -1.84579779633006
N         0.52179947071801   -0.90512990561175    0.11735251524160
H         3.22066175958213    2.35759151390890    4.40803808199213
H         4.82286146206131    2.13376956225857    4.30534795708097
H         3.74033243027053    0.64793907818842    4.18915671365731
H         2.67093538094350    1.64912149651966    2.10761312626135
H         5.62715682527021    1.25841658603917    1.91827777469918
H         6.21849262826635    0.01225592610504   -2.14489339736997
H         6.10225710980790    1.87579733889040   -1.93664911676571
H         3.98625046737710   -0.32492513869382   -2.06340818382842
H         3.89221246207187    1.26732135925131   -2.86886467984491
H         2.52999521905961    2.69063349222052   -1.89364781705717
H         3.80449651786178    3.42513591022892   -0.94553289339416
H         1.46048904860597    2.37571761738363    0.30958589135491
H         1.76141560213720    4.23319809587743    1.88490858783090
H         2.88943282097499    4.86898037282080    0.67181132339242
H         3.62581013092746    3.88861579610021    3.17698762259583
H         5.24895272315262    3.44060942163221    0.80080292116166
H         5.63153483575979    3.91373180282497    2.44494023588940
H         2.93872233080404   -0.38297763368491    0.46204282671422
H         1.67891960586394    0.05987749776520   -2.51057307450323
H         0.92552302744821    1.54202777928239   -1.93822780243769
H        -0.09444643544013    0.11790454104577   -2.11048205918463
H         0.90342220507583   -1.29400793833426    0.98115969656020
