39
 energy: -52.273922680648 gnorm: 0.113118945917 xtb: 6.4.1 (79825abcba525fcdf90b791dcacef51065a7a4e7)
C         4.09674631619212    1.52822955174270    3.71579590639084
C         3.70271995520133    2.04748600541058    2.32683675906747
N         4.76035368393455    1.57870787216270    1.44835186584243
C         4.73026329881748    1.29449655967667    0.10812013047976
N         5.83139585057241    0.99840239124333   -0.51645309223026
C         5.60915731172025    0.63744100301114   -1.91542144425466
C         4.09306654977178    0.53869056890583   -2.00819369201909
C         3.46339577208702    1.15508493294205   -0.75824141999470
C         2.89177247262978    2.56711046793806   -1.07911009362469
N         2.45016209953653    3.48971459177002   -0.01301271664113
C         3.41522083367642    4.12222654667068    0.87976958357862
C         3.45377603051167    3.58365687667172    2.33834096667789
N         4.45209691710604    4.44259862875628    3.01926652174736
N         2.44919863393147    0.31505429559553   -0.10694299098246
C         1.24769593468790   -0.22074356068580   -0.48512350184617
C         0.60981539281083    0.32312365023095   -1.73905703565154
N         0.67719827675651   -1.20143560963622    0.13093859737784
H         3.35602617470574    1.77476294610295    4.48116706177029
H         5.07331861578303    1.90497115989226    4.03358974502712
H         4.21602412715487    0.44036580735150    3.72776362726328
H         2.76973789018205    1.56034101351609    2.03328706092834
H         5.71237168095666    1.50272911318889    1.80173370165784
H         6.11199408894381   -0.30963243452638   -2.14568932811616
H         6.00256527909978    1.41773195116717   -2.57071961692447
H         3.85477486801304   -0.52071643204736   -2.16126603724440
H         3.78706216306863    0.99856350460741   -2.95651556599876
H         1.99733912318612    2.42838326947906   -1.69681601872633
H         3.67914602304870    3.04481392345398   -1.67587552894809
H         1.78904740663763    3.05224852408958    0.62668637808708
H         3.01921200630081    5.13916419708002    0.75461173620289
H         4.40475903673356    4.02945484441043    0.41431441979659
H         2.54799910679993    3.78550128098374    2.92619067725809
H         5.39215725902018    4.39006479019097    2.61938602379169
H         4.44179290518688    4.23819204684549    4.01651126627953
H         2.91083210869951   -0.27411827276992    0.57867049094462
H         1.40391310180205    0.32867278834219   -2.48103915470171
H         0.33569347031506    1.38046304867799   -1.68071984848877
H        -0.18752718406095   -0.34588448870796   -2.07829352208289
H         1.31595481323794   -1.43803223196021    0.89188341441356
