39
 energy: -52.262586843019 gnorm: 0.115355398698 xtb: 6.4.1 (79825abcba525fcdf90b791dcacef51065a7a4e7)
C         3.93155608997438    1.38059262034933    3.60103735948264
C         3.65571939959600    2.05796947013694    2.25227263410957
N         4.74220071611335    1.58041243234387    1.41467165612790
C         4.77993203666856    1.33018641387508    0.06787325875752
N         5.88775955320430    1.08679694292474   -0.56752908874441
C         5.53861649535884    0.66718080224696   -1.92355894455712
C         4.03924060773868    0.45244982133982   -2.07406510098724
C         3.52191887228597    1.11273591161130   -0.79531238949348
C         3.07608559276341    2.57156399453550   -1.10608452574626
N         2.56418461950365    3.57335660844489   -0.14840469983761
C         3.47755372907793    4.16045225680760    0.82604157001611
C         3.44009220281187    3.59903026130970    2.27599889786399
N         4.36541858288821    4.37829256112776    3.13309078248009
N         2.61875542623771    0.19454526097017   -0.08844700778541
C         1.34583732383248   -0.23923061547544   -0.34384192882826
C         0.61358334822742    0.30122744180207   -1.54664766334465
N         0.69269354477839   -1.16805878764438    0.27051823455526
H         3.09293844222515    1.42702322423140    4.30089640995104
H         4.74700854346592    1.96788309642185    4.03318064090399
H         4.13756476673692    0.30825030912067    3.67493148676465
H         2.69287684299052    1.71234521525547    1.86832564215818
H         5.61620867235873    2.07299748533551    1.58919911323546
H         6.06531437902869   -0.24191303864357   -2.23812841326953
H         5.79919846547831    1.43932558848039   -2.65083396756752
H         3.79875212314017   -0.61746516807214   -2.07618012514186
H         3.66030266540893    0.96017780475107   -2.97019819131456
H         2.39218124288935    2.55311432326719   -1.96209346609925
H         3.94917353537891    3.15833225606608   -1.41866593136092
H         1.67100879290229    3.42424061348965    0.31814163664573
H         3.24269008498660    5.22864754851681    0.92825482154431
H         4.50868191210933    4.10979369114950    0.45368511035011
H         2.45301632544383    3.83073496079023    2.69876884747610
H         5.34607895601348    4.19033123031139    2.91093445155434
H         4.23085904753865    4.08616763986891    4.09898004461931
H         3.06489461160097   -0.50035284201668    0.50178351642669
H         1.19445377307703    0.47323681679911   -2.44895678198790
H         0.07659679642052    1.21086370290831   -1.26253505137909
H        -0.17846465473439   -0.42131428214124   -1.76801136261679
H         1.17551098976916   -1.37405428619633    1.14657648366755
