39
 energy: -52.266325695292 gnorm: 0.108234691604 xtb: 6.4.1 (79825abcba525fcdf90b791dcacef51065a7a4e7)
C         3.79677741785127    1.42924303819340    3.71418253640383
C         3.67767493096849    2.00697909706601    2.29780434795097
N         4.78370691351321    1.52115833717383    1.49111409479572
C         4.87653187778433    1.28579239389095    0.14430713855504
N         5.96422426972221    1.20781415673776   -0.56357773722512
C         5.59014405188209    0.88767756270921   -1.93993964258312
C         4.20249910096961    0.27146824591331   -1.83215692728104
C         3.60299375865553    1.11563917888063   -0.70664515028823
C         3.04575100661680    2.51673001600418   -1.09388020998454
N         2.30085794180666    3.21822965762382   -0.02813432696899
C         3.14950860584171    4.03996972391003    0.82802294876358
C         3.53805070167243    3.55634484610637    2.25424743294390
N         4.71679172458788    4.34555402761684    2.68529684613481
N         2.54768944578084    0.39757927193451    0.02078850342253
C         1.37520862947925   -0.11186427840820   -0.46856267083601
C         0.60160205798720    0.64995243909744   -1.51555865287939
N         0.73332253070823   -1.16266211860728   -0.08053804491941
H         2.98933758308451    1.98052172373842    4.20343786114095
H         4.73514703726049    1.73312263912254    4.18719443766804
H         3.65617231677919    0.34412045004913    3.73778592087059
H         2.72998351649571    1.58222860098935    1.95809096010318
H         5.71880160550260    1.38027266740188    1.86892210651180
H         6.31597860740518    0.20340946366091   -2.39574397263866
H         5.55395366542391    1.80082515909650   -2.53817973897181
H         4.30982399440455   -0.72660261269317   -1.39068982891915
H         3.59358344316528    0.30375729110631   -2.74463449776815
H         2.32549146095759    2.33836884743384   -1.90024882608594
H         3.86847056454068    3.17034530256481   -1.41043393261297
H         1.60161691270415    2.68226736762356    0.48320756409482
H         2.56991981452489    4.95872809394270    0.99114729086353
H         3.98545669183620    4.28064383709751    0.15891330222801
H         2.65860821110989    3.87575219609122    2.82983420224041
H         5.49910432922425    3.97349452013259    2.14129650047227
H         4.87247833951978    4.18932772637814    3.67914810422183
H         2.96277759600392   -0.24517592461490    0.68776916541822
H         0.89501863505967    0.68650033647684   -2.56137430526949
H         0.29162954643518    1.62729362264839   -1.13446298019291
H        -0.32661929987132    0.07019883148151   -1.48911363960396
H         1.20536858784753   -1.56098893285921    0.73280883967472
