39
 energy: -52.260505503034 gnorm: 0.123257001134 xtb: 6.4.1 (79825abcba525fcdf90b791dcacef51065a7a4e7)
C         3.52572926590259    1.54634259348554    3.83277952318583
C         3.55631024060307    1.94784763287877    2.35225594814708
N         4.61101117194832    1.34220452666681    1.55797631183134
C         4.76978014795539    1.26102379913282    0.19926194662765
N         5.92594761409872    1.24006842895101   -0.39495521554065
C         5.74859294756659    1.05404854987375   -1.83396093991255
C         4.34833935713397    0.46796092655948   -1.94656965174992
C         3.57707939299067    1.01773450134291   -0.74585525116610
C         2.97041778893024    2.39128925231622   -1.15675068854218
N         2.27610803944747    3.21274106244123   -0.14386737606663
C         3.09605693072289    4.00945370845397    0.76244534156132
C         3.68570228396899    3.47805122153913    2.09994450980903
N         5.00000140679576    4.12598847149955    2.32551107699233
N         2.60470058435499    0.09818772430531   -0.13976109700809
C         1.25643729996961   -0.04650921793673   -0.32673031188913
C         0.59723321814908    0.57663435704385   -1.53179234193065
N         0.58635996479306   -0.80530895289523    0.47450393022086
H         2.56677385583203    1.72871821398402    4.32510228477847
H         4.35038708898887    2.09008411772268    4.30278510846307
H         3.71902650604042    0.47099450621302    3.89665924534926
H         2.60673227031257    1.56078150534819    1.97487193059490
H         5.49150824515278    1.57643845340316    2.01278302064048
H         6.62658446574823    0.45372144598466   -2.10145763638589
H         5.79083980508440    1.99780579972738   -2.38220992231461
H         4.30905105127911   -0.62462531403366   -2.03182806675069
H         3.93058163840066    0.84041685903349   -2.89059891543897
H         2.37978139056518    2.52635851257794   -2.06983435962435
H         3.87198852675777    2.98682933849810   -1.34855501656726
H         1.63597659613466    2.69786654575867    0.45846151522708
H         2.50018930560262    4.88090838283880    1.06602100990574
H         3.90244051231710    4.44151652583076    0.15622080023595
H         3.08335693189083    3.91949620842800    2.90557884882015
H         5.55986375544574    4.06911472992352    1.47128792539150
H         5.49912354556433    3.64217602171579    3.06927710776646
H         2.90428373875762   -0.34505892334578    0.72283843838456
H         0.71643662681414    1.64862410122678   -1.39842081799240
H        -0.40723373448675    0.14576364500985   -1.48809753113163
H         1.05710013353802    0.14455780137277   -2.42635410000796
H         1.04206848053385   -1.27326450564768    1.25959770238643
