39
 energy: -52.265919654808 gnorm: 0.112776745198 xtb: 6.4.1 (79825abcba525fcdf90b791dcacef51065a7a4e7)
C         3.64465992575821    1.74276671466184    3.92059597898935
C         3.44227211671085    2.16141390184876    2.45845191447855
N         4.38818204645804    1.41428856761373    1.64781271750305
C         4.51928227347064    1.43285320340753    0.28385865228716
N         5.70324126141683    1.35365781001889   -0.24739041101871
C         5.65923859712101    0.97046030079533   -1.65736167673040
C         4.19601764970053    0.69261275645672   -1.97148701369676
C         3.40576858358959    1.13319802140337   -0.73852351374621
C         2.65432544028241    2.48120974507366   -0.94278703012082
N         2.38922838019663    3.31448614892808    0.24807638863565
C         3.52135948045972    4.07849752869719    0.76094650070496
C         3.81361249896662    3.65515187136817    2.22871382232564
N         5.25025910426340    3.99451430622199    2.36642662416135
N         2.51876872938258    0.10620511718931   -0.17553705195185
C         1.34537375170299   -0.40782978964293   -0.65784493143427
C         0.81639802685087    0.05769696238221   -1.99144979697061
N         0.67290832990518   -1.28893362683315    0.00412428956641
H         4.58149391114662    2.13452508548033    4.32569536449086
H         3.65403368303794    0.65741845728190    4.05680138529156
H         2.90095892580037    2.23195545779474    4.55732288086305
H         2.42997059656385    1.86609271579340    2.17215096520103
H         5.35919864468006    1.42216638118740    1.95449574531237
H         6.21801953165489    0.04612155278454   -1.84756673346095
H         6.18865520240643    1.75230472786635   -2.20643073562981
H         4.03767882886924   -0.39210740793759   -2.00095305268036
H         3.80042827191791    1.21660410013626   -2.85090630415362
H         1.64483799847452    2.36504222908275   -1.35297852630133
H         3.13007480243796    2.98379912684757   -1.79446368762939
H         1.50302345503203    3.81067573094678    0.16996843033205
H         3.38233118606347    5.16799345959548    0.74307446873370
H         4.37153964136686    3.90716162018546    0.08842984283817
H         3.27314205662435    4.16823782687935    3.03579175564638
H         5.86693445771145    3.55335233315933    1.67979332575466
H         5.59442561003438    4.01554986165903    3.32428476918604
H         2.62138910095109    0.01177126471982    0.82987177801361
H         0.38703642713714   -0.82788313719155   -2.45248767790167
H         1.64563749511307    0.40226009330395   -2.61607032915336
H         0.08818487278450    0.84709978321912   -1.77941853916754
H         1.08381180881881   -1.52481249384609    0.90885871026679
