39
 energy: -52.265037804238 gnorm: 0.112368048782 xtb: 6.4.1 (79825abcba525fcdf90b791dcacef51065a7a4e7)
C         3.46074660904663    1.72804255847922    3.69358004963567
C         3.41210768600058    2.03067543240298    2.19020412305889
N         4.47242401790222    1.19400436284029    1.65561212627024
C         4.71952230991248    1.23359576266872    0.30828973880477
N         5.93700227759189    1.01741743457035   -0.09328945764830
C         5.87451255518820    0.83411439164753   -1.54218233918020
C         4.41319926928171    0.63763727256201   -1.92013705097841
C         3.59501102157005    1.17177850097336   -0.74367237889530
C         3.09162656272158    2.60788665421212   -1.07188489625345
N         2.25219163543248    3.36764017319782   -0.12272458459489
C         3.06351633791621    4.20829486928620    0.75107280874749
C         3.69590446898305    3.55023884085980    2.01044638403024
N         5.15876083525804    3.79102664662270    1.99789102644920
N         2.62240330372017    0.17972487708755   -0.26586409227335
C         1.27230237721143   -0.04066485623248   -0.31448915605141
C         0.36829171796685    0.47727611726485   -1.40514688560109
N         0.71412346835539   -0.91817237385092    0.45047739997071
H         2.55495656984366    1.95380183656156    4.26262768106460
H         4.24683502850451    2.31990605680910    4.17147462085545
H         3.68055880651216    0.67104904234347    3.87320538165628
H         2.42614684316965    1.88609504350787    1.74196875649017
H         5.35160539967341    1.12768323312950    2.16515249285538
H         6.52172707561960    0.02737337635253   -1.90700903844646
H         6.22627177266577    1.74196821371879   -2.03726453770249
H         4.28074897632232   -0.45014779599587   -1.87844968267520
H         4.18292274827111    0.94558648783138   -2.94803596521265
H         2.62568210595984    2.52312745139885   -2.06007946196285
H         3.99020932258853    3.22400033491387   -1.20318468091573
H         1.50847249498799    2.83149319301586    0.32122629070741
H         2.44418382921564    4.99625727141386    1.20073063577247
H         3.75597406706926    4.71579254147080    0.06741400218886
H         3.29520067464814    4.01857363231294    2.91975341989678
H         5.51300127538322    3.51028044036764    1.08024570003360
H         5.70851719406606    3.24812176755708    2.66076925354542
H         3.00604089649621   -0.55607717809197    0.31869826062986
H         0.63327184395690    0.11150366069379   -2.39365862508966
H         0.46737774029010    1.56625785331168   -1.43366699676751
H        -0.66838590093615    0.19628555581538   -1.19359953387214
H         1.34582386305742   -1.19785921078040    1.20264411612896
