39
 energy: -52.268731767578 gnorm: 0.105665702832 xtb: 6.4.1 (79825abcba525fcdf90b791dcacef51065a7a4e7)
C         3.66164982523815    1.61456809091311    3.88659550410373
C         3.62102692365243    2.01230203222354    2.40529571872243
N         4.61509959871878    1.26624519458182    1.65343369799893
C         4.74472411787010    1.19435181171594    0.29110793917447
N         5.94095592079982    1.08835036738876   -0.20693779799066
C         5.77293131242595    0.99654908928562   -1.65612233075366
C         4.31550517904340    0.63977066802106   -1.91206719041400
C         3.55071243565655    1.12786764414656   -0.68094518070071
C         3.11027287339342    2.60767633585323   -0.88020694669101
N         2.23098041642403    3.22380845209280    0.13468600527364
C         2.72880940962509    4.12200239078292    1.17096970773813
C         3.81692533845500    3.52767032328462    2.10998376494116
N         5.14297356088161    3.93451617867843    1.58638305186535
N         2.52521285716655    0.19049154231617   -0.20333277954513
C         1.20173972288081   -0.02680917225844   -0.47702572192447
C         0.62597500781986    0.31210341181018   -1.82930737689390
N         0.48161001239612   -0.77090490397449    0.29400717239537
H         2.77167168922702    1.96993864636995    4.41279768641006
H         4.53314465079800    1.98230816484322    4.43603579006027
H         3.71622620480515    0.52387777320831    3.81424908313366
H         2.69065856769220    1.67921464431839    1.93902892016804
H         5.55405382122026    1.24309801104350    2.04690409252179
H         6.47893842957207    0.32194494858009   -2.15540123758823
H         5.98003004055062    1.99138510156911   -2.05668558195373
H         4.31421585435945   -0.45682781437455   -1.91729953178363
H         3.77365077256594    1.01721630330041   -2.78863138126124
H         2.66930593522253    2.76273488805660   -1.87132846464463
H         4.01550925739443    3.22797580751861   -0.88810222067178
H         1.47314863297024    2.61700443173631    0.44314020672354
H         1.81723307504910    4.46452974145877    1.67925433512178
H         3.14421331376768    4.93342405823440    0.55984334513593
H         3.67260761930063    3.94311767105420    3.11661983991179
H         5.40070949572064    3.41611114749425    0.74305270337462
H         5.89807289394436    3.95319034698103    2.26892358300290
H         2.91265813692296   -0.43409611691663    0.49671866498524
H         1.36654217044726    0.69972938752307   -2.52390495998841
H        -0.19466428821061    1.03416303369517   -1.78815273390184
H         0.29758972441102   -0.61599144422003   -2.30806776450648
H         1.03116524634266   -0.98320710650174    1.12823837997369
