39
 energy: -52.260108671308 gnorm: 0.118860363245 xtb: 6.4.1 (79825abcba525fcdf90b791dcacef51065a7a4e7)
C         3.79140386056477    1.60458354192334    3.85170309409922
C         3.71538321668437    1.97707984216760    2.36524457794249
N         4.75315047282450    1.29051474513221    1.61574791303537
C         4.76999670534024    1.17989440540074    0.24995804910350
N         5.96415960745197    1.13223754357566   -0.26186238209478
C         5.76077883744791    0.91946686296780   -1.69370051820277
C         4.30240709653803    0.56668902505349   -1.94980440993333
C         3.57502799087648    1.11412502579183   -0.72096697793408
C         3.03249349467375    2.56022087228496   -0.91587490066275
N         2.18668449597544    3.15811229172089    0.13764997868212
C         2.59671485630978    4.04582515206445    1.22038306045339
C         3.67134045767056    3.52564631728247    2.21716190208073
N         4.95304351001468    4.07948425815939    1.71857794890001
N         2.59668218754487    0.11042264055854   -0.28067397000891
C         1.26533738654072   -0.08405846758739   -0.53248077726632
C         0.76313456159606    0.56057585082175   -1.80026283204160
N         0.49515063304764   -0.79831159153628    0.21812684377586
H         2.91448044892809    2.05060113363814    4.32847525009646
H         4.56122747627553    2.13295875777713    4.42162576507789
H         3.86190071619249    0.51669571571606    3.94838929168373
H         2.75205628844838    1.64493859774957    1.97075677481686
H         5.68021533882002    1.52689199048206    1.96455487755362
H         6.30933615059297    0.00686597611272   -1.95649458039380
H         6.04779232910477    1.83300464423952   -2.21916361712209
H         4.21146162102640   -0.52209354206761   -2.04381879008090
H         3.86749533360987    0.97413239833497   -2.87136712309849
H         2.41231083687003    2.66960385598605   -1.81266120727645
H         3.92433437576998    3.17215960456614   -1.10144834454525
H         1.53567373940109    2.46956734286064    0.51148813910455
H         1.73172404310146    4.32986292880679    1.83500740796964
H         3.05080908343818    4.97600340555855    0.85568071694839
H         3.47090724018724    4.07359606134634    3.14792389212424
H         5.36276262832559    3.62528805658578    0.89869154365258
H         5.54779065384560    3.95853141482842    2.53590991978056
H         3.09629534241897   -0.57084045442324    0.28196525912803
H         1.31095958173123    0.11771435157114   -2.62786229052180
H         0.81511777702576    1.65305647306846   -1.81748175395977
H        -0.27223842693679    0.20723045629729   -1.76078778131785
H         0.80062303270769   -1.22039352320179    1.09651077515813
