39
 energy: -52.270007334812 gnorm: 0.110068358346 xtb: 6.4.1 (79825abcba525fcdf90b791dcacef51065a7a4e7)
C         3.65244502855717    1.54396506955135    3.73186154884122
C         3.69073377203431    1.98245009366432    2.26204642261863
N         4.80328138262403    1.33651938825877    1.58744336552433
C         4.90949350756510    1.12563869265619    0.23757255231986
N         6.03321615568441    1.01229788801624   -0.40636676366975
C         5.80903927440294    0.75588270559555   -1.82791226040911
C         4.30523914421647    0.62973795382073   -2.02681501707463
C         3.70517098203002    1.15875123987666   -0.72340740718623
C         3.05243211639418    2.55809014947335   -0.92167223735614
N         2.14820200127217    3.10386260723195    0.11142127057337
C         2.52319559858942    4.00222457063661    1.19806548457582
C         3.63340842500542    3.53560059810760    2.18227273990340
N         4.89379398585760    4.23595675205150    1.83728766438226
N         2.70152666546823    0.24342072857070   -0.16367046549727
C         1.38700664644660   -0.05472340857283   -0.40211549872121
C         0.60240891314544    0.65464996142785   -1.47739612402060
N         0.63825397858042   -0.80906925831185    0.33074799861077
H         2.72279127506311    1.82368911088582    4.23459053041148
H         4.49823477137728    1.91432289113332    4.31845803320272
H         3.68680569702845    0.45391043724137    3.64011074263399
H         2.87537678164874    1.48647687800561    1.72993664954848
H         5.74017618861591    1.51957429673837    1.94199782266845
H         6.48062024530388   -0.08766884758028   -2.02845160796244
H         6.30204720663960    1.51921902582383   -2.43396536490193
H         4.05872206685701   -0.43153158845198   -2.15128838148635
H         3.97095695551946    1.07694922060046   -2.97163974055787
H         2.49964734455483    2.64167821778566   -1.86414715847181
H         3.91747550623224    3.21324185576929   -1.08526603918975
H         1.44053374444572    2.44776475193380    0.43761969152545
H         1.57714695308835    4.18399293983650    1.72589302610755
H         2.81086297230802    4.97300630071982    0.77466106423533
H         3.39137283605124    3.98071462800393    3.15696889844726
H         5.21541311707869    3.88835376341240    0.93058431119878
H         5.58430875089426    3.89061570079941    2.50084944073177
H         3.07670107872533   -0.45408509029049    0.47117243786375
H         1.13907148369045    1.04159526020142   -2.33961772357045
H         0.08835355587460    1.48866080074201   -0.99089257512071
H        -0.21751533562721    0.04000209969865   -1.86254640230007
H         1.11083342441732   -1.27865685893503    1.10481586758325
