39
 energy: -52.270663840733 gnorm: 0.113203677916 xtb: 6.4.1 (79825abcba525fcdf90b791dcacef51065a7a4e7)
C         3.94807684175288    1.53256605578728    3.71562265156542
C         3.79863988105900    2.11075589743882    2.30230858960319
N         4.89652195861279    1.70148183611867    1.44368910112574
C         4.83169206682368    1.18867401060707    0.17454457916064
N         5.91139714928377    0.73840852893091   -0.39268931425805
C         5.63425682242958    0.37724300017722   -1.78177111251103
C         4.11991513428889    0.25052374183999   -1.86895493589916
C         3.56401379082688    1.05199782001191   -0.69106657949891
C         3.18655550394871    2.53411502742629   -0.98154865217920
N         2.24792343034722    3.18918187157215   -0.04739718541444
C         2.69152631165278    4.06619316615324    1.03081319416026
C         3.52016155783780    3.64167657284742    2.27665569604498
N         4.82233206530916    4.34366644548211    2.37487646180701
N         2.50736020729501    0.31450451384312    0.01464141820239
C         1.24412023671549    0.07462026317381   -0.45481454478645
C         0.80369029975316    0.56856749389233   -1.81020011289014
N         0.39033951917570   -0.67556074376535    0.15759375508566
H         3.05396976218514    1.82707406665300    4.27156834078201
H         4.85952868617879    1.85955416589797    4.22449879120185
H         4.01010011864328    0.44973103763985    3.56920070655213
H         2.88172876328415    1.62804713263249    1.95560490284395
H         5.81053745933505    1.98919214088469    1.78834573754346
H         6.24992818948772   -0.51503508281085   -1.94791806351825
H         6.02056123426685    1.12477559992715   -2.47819296861174
H         3.79561996909846   -0.79646594781336   -1.83427787022568
H         3.77211335830790    0.59335455747233   -2.85177594410636
H         2.80615087928234    2.61593224753108   -2.00595829627693
H         4.08263033273676    3.16120728183037   -0.89159375055545
H         1.40358573795965    2.69463053426251    0.23575817122644
H         1.79047900106082    4.61839944999757    1.33053242782217
H         3.27906934056022    4.81615196822100    0.48602338575619
H         2.99263721881118    3.93987781760328    3.19291677533305
H         5.43074313179076    4.08410691397427    1.59459286808047
H         5.33481282362653    4.07199985681112    3.21150424021289
H         2.87631763987783   -0.26069503177818    0.76518223006594
H        -0.20397271254158    0.22360646808930   -2.02647902657925
H         1.54036167329962    0.37728422513605   -2.59584548931269
H         0.90125922237248    1.65772920260322   -1.75905767160769
H         0.61449703933489   -1.05254878190473    1.07990514878675
