39
 energy: -52.270438074713 gnorm: 0.116009293554 xtb: 6.4.1 (79825abcba525fcdf90b791dcacef51065a7a4e7)
C         3.70974419766465    1.38061224690839    3.57943430648892
C         3.60574050261543    2.02719509401751    2.19191659120630
N         4.75125017892803    1.62805904807837    1.39280722769987
C         4.75821688107780    1.35599694367010    0.04973749275133
N         5.89646013244785    1.20957720606731   -0.56117980741401
C         5.70377115406423    0.66938861447899   -1.90574768995140
C         4.20403863900016    0.44789582435318   -2.04224993926279
C         3.51974110315303    1.05434780865253   -0.81637847024548
C         3.04787962750400    2.46755058984522   -1.26774382866710
N         2.53687351038231    3.35909606371428   -0.20623493182712
C         3.40231396102936    4.07627708339997    0.72389096419166
C         3.47144620441227    3.57763979697502    2.19547374065354
N         4.53372797694280    4.32557463754531    2.90978183459386
N         2.61476892680134    0.25456094260217    0.02016398490106
C         1.31138960574276   -0.10093179078011   -0.20014450372840
C         0.52581796058420    0.58794403407871   -1.28796788979289
N         0.59311452300349   -0.92709416014775    0.48417532041766
H         2.72328550877368    1.42482443143395    4.04867048241739
H         4.40749620181199    1.87850512321139    4.25904113708303
H         3.92868904737086    0.30866029109668    3.55114814826129
H         2.71498244792482    1.53576463525172    1.79318936599341
H         5.63727553993864    1.53205988645820    1.88548662030362
H         6.27789757339058   -0.26432399259742   -1.94284002904453
H         6.09822729873507    1.39206205584859   -2.62351292743614
H         3.97447749991568   -0.59563656720913   -2.28902735105603
H         3.85420700121683    1.01755458641658   -2.91261934616653
H         2.43240369506095    2.27894983055476   -2.15455609513063
H         4.02046196513607    2.92982893069492   -1.47909431114264
H         1.79459515229568    2.88879288486507    0.30903382168722
H         3.00844205431105    5.10170518235294    0.72732583264068
H         4.40819824690608    4.06415020647402    0.28515334621593
H         2.57428827262386    3.85191591777409    2.76698099426392
H         5.46045229169611    4.00503321269029    2.61855528284147
H         4.40740831790145    4.14202800309341    3.90312934779169
H         3.17614151543905   -0.40317735489049    0.55170586091778
H         0.94952059658122    0.29436046937702   -2.24475636812617
H         0.48893938875603    1.68113014006034   -1.27813096843315
H        -0.50486397579594    0.22624868953566   -1.21530639886232
H         1.19162549524007   -1.45758932143502    1.11930080957333
