39
 energy: -52.270595535142 gnorm: 0.112759685803 xtb: 6.4.1 (79825abcba525fcdf90b791dcacef51065a7a4e7)
C         3.77984575611395    1.43454353998159    3.70293144384853
C         3.61568056788114    2.01612960808238    2.29264814212432
N         4.71304378837303    1.48123451951763    1.50540042582767
C         4.74704574858183    1.40336564135002    0.13767131994464
N         5.88029153105470    1.13172251681223   -0.43871428751700
C         5.60548622387465    0.85240756919394   -1.84699719381544
C         4.12028446895421    0.55460521731353   -1.99659343770931
C         3.49937422065109    1.14145589810290   -0.72817525316621
C         2.86158168465434    2.52133776865464   -1.06384278488644
N         2.36697689447599    3.39319330625783    0.02152154294694
C         3.34338943615721    4.12677394034827    0.81961174383328
C         3.64554781245900    3.57122418464012    2.24054068620855
N         4.88667216528855    4.20976229403762    2.74050524909710
N         2.51208756995904    0.29023175169344   -0.05059173003468
C         1.26174386685818   -0.13784446894546   -0.40710248510897
C         0.69187267023304    0.14513598814218   -1.77465551315166
N         0.55773516416386   -0.79843185729424    0.45007486763726
H         2.96593809965169    1.78321484515474    4.34419636354436
H         4.75641777673074    1.68587266758782    4.12691420037445
H         3.65826159505549    0.35033152404440    3.61621611776199
H         2.68876043568091    1.62114225488028    1.86987011362711
H         5.63216641560228    1.35180795565479    1.92427047324625
H         6.26360021770402    0.10004635451125   -2.29827846803054
H         5.81365401900240    1.82576692428150   -2.29674959810443
H         3.91545389810331   -0.50889353938411   -2.16855878929816
H         3.78585354744681    1.06096937945633   -2.91102630420253
H         1.99531916009563    2.43787850299559   -1.72975617355815
H         3.55522905964809    3.18967030267833   -1.58964846530296
H         1.87113799541861    2.78662701305619    0.67258624546803
H         2.94209203110932    5.14320041563463    0.93135821935972
H         4.28557660018006    4.14480254936364    0.25711794828219
H         2.81715312703239    3.99855392081385    2.82182532064629
H         5.49988975053289    4.32216141695241    1.92951308168684
H         5.33023698228672    3.69549039723114    3.49889826910204
H         2.95715894304125   -0.46178256530869    0.46582046130259
H         1.44343548749490   -0.02332645183346   -2.54142350683881
H         0.27077170559967    1.15395414206399   -1.73628146392547
H        -0.02982822730162   -0.63545448555795   -2.03587340796027
H         0.90372571599049   -0.94761864126795    1.39931599495800
