39
 energy: -52.264291638165 gnorm: 0.109579112417 xtb: 6.4.1 (79825abcba525fcdf90b791dcacef51065a7a4e7)
C         3.76094854826559    1.42486301136931    3.57666890251080
C         3.56614485138392    1.99960830598981    2.16748086405577
N         4.73237622762699    1.49434808432303    1.46413581704660
C         4.82358817622371    1.28660099345611    0.11268321353777
N         5.96624577200493    1.00485128973111   -0.43977229349557
C         5.74538091980687    0.59472541083360   -1.82534474681287
C         4.24140081884570    0.54167454187607   -2.05364060869035
C         3.58837458289690    1.10532877785136   -0.79084267190264
C         2.92273766962531    2.46642367806168   -1.14843764752355
N         2.30691369375020    3.32788371986051   -0.11818082046137
C         3.36474423616273    3.97861305436089    0.64733590364841
C         3.36624044251189    3.54273062251983    2.14031231077904
N         4.41071175603446    4.36575736962287    2.79589738818523
N         2.71467761192283    0.04738944268484   -0.26562376201584
C         1.35257464784657   -0.08163041997860   -0.30731248479364
C         0.54936323489444    0.82113499034806   -1.21002974848294
N         0.68441133263851   -0.92998433364556    0.40022577936460
H         2.96300110590113    1.62005379036628    4.29806926875559
H         4.57698925467158    1.97673832758148    4.05220210147709
H         3.98794852162584    0.35606323234323    3.51377219068212
H         2.67701448672245    1.46877091665148    1.81877458813276
H         5.61027821630609    1.80539404641353    1.87587392733723
H         6.27239183655144   -0.35939701368808   -1.94669594033751
H         6.25821113916438    1.29861842706310   -2.48457101770111
H         4.02478472562973   -0.53328594727707   -2.04390982696587
H         3.87452359580258    1.02991805260332   -2.96548245701720
H         2.24135729717019    2.16855156422733   -1.95330400577397
H         3.64215918507153    3.14463410123026   -1.62462036441118
H         1.69178328940502    2.87887420527091    0.55833168256502
H         3.27420469970016    5.07228807412435    0.69557704454559
H         4.38559802275067    3.85020476502125    0.26548539061762
H         2.43551139313469    3.77065271360307    2.67746707808600
H         5.25628712764028    4.10117978801438    2.28464533574724
H         4.61383457999160    4.16236819968349    3.77250338244773
H         3.21142952597052   -0.39386822770279    0.50172545322822
H         1.01065267169225    0.82759346092587   -2.19406723030855
H         0.55364986600549    1.85943349522489   -0.86589242612381
H        -0.50389919620296    0.52415459460689   -1.23917350784052
H         1.29037925159143   -1.31567620859251    1.12622133296071
