39
 energy: -52.262734456828 gnorm: 0.119280679047 xtb: 6.4.1 (79825abcba525fcdf90b791dcacef51065a7a4e7)
C         3.81747944355323    1.35065935467317    3.66555676148343
C         3.65673868056239    1.84530655458143    2.22209630221682
N         4.78842373252432    1.43952432672255    1.40680035579118
C         4.82715706103725    1.24966748851980    0.05020287482049
N         5.97270875991621    1.22801275447156   -0.56420638942325
C         5.63907000229043    0.99911113736698   -1.96887175134329
C         4.23103832353808    0.42089648052591   -1.97090811953611
C         3.54777618564028    1.12951342541983   -0.80051379806234
C         3.07266611237847    2.52436750827258   -1.30268757631687
N         2.55127868754325    3.35697998345195   -0.19919615013435
C         3.35565867012996    4.04555822476351    0.80444861273011
C         3.38220420192113    3.37709405823838    2.20852313183947
N         4.27390094545953    4.23856641284473    3.02143606136207
N         2.62894318455009    0.28937428474780   -0.02054644534073
C         1.31671390638986   -0.03570835253641   -0.23521866420320
C         0.72571985685070    0.34925100350457   -1.56847210942315
N         0.56446028829315   -0.60795296533408    0.64421727163445
H         4.50953059815392    1.85719654610054    4.34358575552624
H         4.18560930567738    0.32904148524697    3.53365546034331
H         2.82061139810693    1.26998196676028    4.11003759139538
H         2.76852098714752    1.39351573019636    1.77388699794799
H         5.67396200756757    1.83815463783376    1.71324056659717
H         6.34640021655223    0.39252176787731   -2.54727431440187
H         5.61551611808910    1.96085826967757   -2.48610202873510
H         4.24563492361725   -0.63276204932534   -1.66734937019214
H         3.64290859736703    0.50434192380811   -2.89371712700384
H         2.33102690361194    2.45397933722005   -2.10632533021840
H         3.97318400569451    2.98823090796476   -1.72480716610837
H         1.81428151167281    2.80668509368616    0.23861068616731
H         2.86535022931553    5.02626411301540    0.87125619272217
H         4.33520093097714    4.11531485068823    0.31447726353839
H         2.34370816304211    3.44359202406085    2.56043829337794
H         5.14830244227719    4.36506767995805    2.50588090969404
H         4.19098081428838    4.20909280597716    4.03565539578624
H         2.96358777885109   -0.27435054356576    0.75438769404764
H         0.58701383804086    1.42329589884432   -1.65983744200308
H        -0.17842272206838   -0.24604475978271   -1.72551290249918
H         1.44226552844906    0.02096635266474   -2.32820887644635
H         0.97469625392154   -0.87844264835785    1.53951982504408
