39
 energy: -52.266172248051 gnorm: 0.130316856754 xtb: 6.4.1 (79825abcba525fcdf90b791dcacef51065a7a4e7)
C         3.93279477661793    1.54368616394170    3.75720049839171
C         3.64840706108723    2.09476544736741    2.35380219705280
N         4.63873797733705    1.41688997708558    1.53538466253593
C         4.60588214421635    1.22792969585107    0.17850696320856
N         5.71710733038095    0.97293945495673   -0.44632495120142
C         5.45414629690678    0.62473652597373   -1.84145998114064
C         3.96296869920932    0.33880196629086   -1.94879276675469
C         3.39242636181010    1.12189733576681   -0.76555524471974
C         2.96179041827593    2.58324647756900   -1.08576977830669
N         2.58935685978029    3.51010376239439    0.00281209884749
C         3.68053818656303    4.08005117174466    0.78572538899861
C         3.61515988821250    3.64884718878199    2.27862962741500
N         4.65408810257610    4.48444228347820    2.92708481161648
N         2.39053150418640    0.39859550765281    0.02910072417858
C         1.31427688151962   -0.20799506839767   -0.56033328947828
C         0.63570832021917    0.30864537401344   -1.80438304720197
N         0.72530991948374   -1.14083533182934    0.11025149762228
H         3.04958930718263    1.74114222893622    4.37054970392252
H         4.74767848867750    2.14221811040266    4.17474650028165
H         4.23189126139966    0.49204828555097    3.70803736755869
H         2.71335734859949    1.68510985553099    1.96418504313936
H         5.60934607651139    1.64371956861343    1.74385051490242
H         6.08971127644968   -0.20450832837481   -2.17496611724900
H         5.76200792827032    1.48113219941723   -2.44548576816992
H         3.65355325978625   -0.71318485075475   -1.96075408157066
H         3.59914530206774    0.86455562501089   -2.84078593057914
H         2.17632107111292    2.62400676483495   -1.84878573290161
H         3.80843621392200    3.01712045117767   -1.63278983877207
H         1.74533169769646    3.25905462191422    0.51492534093972
H         3.52804312235096    5.16767223137978    0.76392302672186
H         4.59908156095602    3.81617295215149    0.24620031860695
H         2.59092241283292    3.93159338559028    2.55743504079173
H         5.49049724571688    4.19809276223515    2.41249627476097
H         4.85939036682502    4.26451047796555    3.89964138099631
H         2.82295473303618   -0.22247110737892    0.70554882407622
H        -0.16603889028111   -0.35918913037649   -2.10828748971953
H         1.38293982738270    0.49960828634898   -2.58007042172937
H         0.33269280967331    1.29773542628985   -1.44620579664812
H         1.30452756894033   -1.52781817310858    0.85709557949153
