39
 energy: -52.262133782398 gnorm: 0.109522860755 xtb: 6.4.1 (79825abcba525fcdf90b791dcacef51065a7a4e7)
C         3.78022701763798    1.76694440766896    3.94899781078931
C         3.51018433782231    2.05550315891676    2.46646540080768
N         4.46182190415065    1.30334264350146    1.66726689979221
C         4.61293480139453    1.21292848723908    0.30826257772254
N         5.78875211035978    1.21150055735747   -0.24645173047969
C         5.67724960593469    1.07295717527854   -1.69737159741098
C         4.25922275396846    0.56443337151064   -1.91530031109458
C         3.48541249240740    1.16575687358414   -0.74123230558727
C         2.80381440613240    2.51164111634833   -1.12534898497649
N         2.32266225633540    3.29141302084128    0.03362905069107
C         3.28603301633802    4.06085043604015    0.81359879557818
C         3.77520693151923    3.56652920628961    2.20476006080952
N         5.19618310944062    3.97053138186980    2.33003608163123
N         2.46745057269458    0.27956267091654   -0.16084425758104
C         1.23527155416445   -0.16299429276024   -0.56032734875958
C         0.79655303930940    0.00272054203245   -1.99388832241899
N         0.43779890483316   -0.79807764467261    0.23179857102736
H         3.44731304677519    2.67038587938532    4.46687795650029
H         4.86689442560167    1.70095284521051    4.05586070735735
H         3.12395598350853    0.96587921404743    4.30314585133326
H         2.54588684402906    1.64489726393175    2.15748264800232
H         5.41739508354086    1.28048436415578    2.01847504318015
H         6.50833957297588    0.44977215443483   -2.04914725406757
H         5.66357765921664    2.04323927539703   -2.19877484061077
H         4.26369478093483   -0.53175895079292   -1.88530615909469
H         3.74023860609499    0.91012517801310   -2.81839986726189
H         1.92491131180043    2.32703699951768   -1.75325623869868
H         3.52007301991916    3.11720451604488   -1.69504472172910
H         1.73061324565399    2.74308767711731    0.65530534106605
H         2.85903475272153    5.07286447996841    0.82583461821080
H         4.20510730097899    4.14546602788793    0.21981127994906
H         3.16935765364037    4.05902520800781    2.97750492397376
H         5.73909989316750    3.64791689075944    1.52533805116143
H         5.65497648804925    3.55669540167604    3.13913046441554
H         2.88273322319324   -0.15941252987887    0.65471487658988
H         1.01349052527157   -0.84120390751732   -2.64341820416066
H         1.21355487391864    0.94043788032386   -2.37244917499986
H        -0.28252011269384    0.16626145835817   -1.90865941124148
H         0.81125843745035   -0.82606135337758    1.18194054588193
