39
 energy: -52.260552239523 gnorm: 0.117813011800 xtb: 6.4.1 (79825abcba525fcdf90b791dcacef51065a7a4e7)
C         3.79495447436190    1.87104134660731    3.87468000406808
C         3.65386260980969    2.12092186269718    2.36744930686207
N         4.66663943198282    1.31948133678172    1.70257791943899
C         4.69168289256250    1.13800055232905    0.34451305938494
N         5.82874315890322    0.87226103467795   -0.22709241593303
C         5.61742042951589    0.68983696030601   -1.66196512881783
C         4.10511673364961    0.69163356870140   -1.83466091744513
C         3.44791999583735    1.22569677362298   -0.56121012694844
C         2.86847078307835    2.66553204186294   -0.68220182720040
N         2.00495313542703    3.20310230839104    0.38930980650988
C         2.74405555920623    4.22029347153361    1.12925556128180
C         3.79831842520275    3.65069234024143    2.12074869848399
N         5.14764256741309    4.01178080835620    1.62373298230002
N         2.48300829315548    0.23870531540209   -0.05799028676884
C         1.40307777907548   -0.28003924782000   -0.72007995751201
C         0.72825060837949    0.59702937382985   -1.74496597696837
N         0.92025933884523   -1.46828946502613   -0.57275463805004
H         2.99425929334871    2.44975024519734    4.34289073635384
H         4.76138480500600    2.21303355777523    4.25635311567735
H         3.74924386050860    0.81267806817683    4.14962665675776
H         2.75099242158440    1.58689884557272    2.06153747972473
H         5.61482918360626    1.25035429690964    2.06747161655071
H         6.06308800335981   -0.28860160194108   -1.87842439113099
H         6.06027634147807    1.48055676073977   -2.27162103493399
H         3.70810842048501   -0.30923433991727   -2.04251926407687
H         3.88674021877822    1.29579895754783   -2.72445418428615
H         2.48028730626277    2.99763557174208   -1.65165408149656
H         3.81864549702395    3.19954712717243   -0.80980506788003
H         1.69672780964499    2.45691884271494    1.01049537602649
H         2.00136492829230    4.77025884876863    1.72305550559264
H         3.31010935780005    4.89497964852358    0.47441007124242
H         3.68865569525453    4.25960604199948    3.02845926631232
H         5.35702342442630    3.56117778274564    0.72958856729866
H         5.83199915460738    3.86392995624653    2.36277390953407
H         2.73188390081711   -0.32267791949241    0.75022095071937
H         1.45748779546676    0.95422564349720   -2.46731172171340
H         0.36899737330128    1.54207480445123   -1.32742687044777
H        -0.00424463349163   -0.05087033494282   -2.23698747822851
H         1.48040498174971   -2.07080476858507    0.03242058551228
