39
 energy: -52.269179471972 gnorm: 0.106404308562 xtb: 6.4.1 (79825abcba525fcdf90b791dcacef51065a7a4e7)
C         3.44321307306525    1.66371383367427    3.76415105310215
C         3.51474692933189    2.13196593095113    2.30479693523442
N         4.54949134800046    1.43453359705327    1.56117747090964
C         4.65404211870135    1.17259034799192    0.22014894611421
N         5.80999153895152    1.13928652848326   -0.37392863333945
C         5.59796448851469    0.81135100615988   -1.78257989289621
C         4.11453375872863    0.50666425334048   -1.93584042013804
C         3.41417327172144    1.04055486860588   -0.68553486408078
C         2.89715932086567    2.45850062574164   -1.06717920219524
N         2.65528925686293    3.55898460037675   -0.11155606259755
C         3.69664194675362    4.17217421494606    0.70578904812150
C         3.83243096410948    3.64894206471501    2.16413185355709
N         5.24387399580052    3.87011566622875    2.56035900655291
N         2.41245037962040    0.20496984777952   -0.00967551911603
C         1.18634969143181   -0.27746984194618   -0.38067095705715
C         0.80587594685447    0.02827636108211   -1.80783297290483
N         0.39750530201358   -0.91911964804409    0.41479559112389
H         2.49372364316606    1.98259040568794    4.20235831605505
H         4.24471892588349    2.10797437055757    4.36151322523032
H         3.44073328196135    0.57095394578941    3.82487691170941
H         2.58439240990639    1.96644959964724    1.75617864959572
H         5.44271185960101    1.72033214605234    1.95799742936760
H         6.22461541628609   -0.00518412038321   -2.16125550720851
H         5.89071266904993    1.71655883955971   -2.31917729375903
H         3.87247980982842   -0.56228242150616   -1.97217442360398
H         3.67067282487222    0.96701037950530   -2.82775134657329
H         1.96199742138145    2.43505618454625   -1.63791507142265
H         3.57679812445346    2.83450882055070   -1.84241826704586
H         1.73215043203122    3.41925530186875    0.29581913982346
H         3.39842473628323    5.22368345764207    0.81553634791503
H         4.64920773657832    4.12120442972419    0.16314602687730
H         3.11531463009065    4.21711445430263    2.77213233634017
H         5.34811756190500    3.99715955324615    3.56999794986164
H         5.75372043014224    4.60676818828444    2.07684584206791
H         2.76990075519387   -0.30320278531032    0.79299839756099
H        -0.10759186974830   -0.47062377772023   -2.12061823941180
H         1.68478319078710   -0.31071907262284   -2.36381572136612
H         0.47709872629935    1.06610033402053   -1.92287821065262
H         0.60998811410731   -0.94295113910028    1.41344868155222
