39
 energy: -52.271395408467 gnorm: 0.120840416802 xtb: 6.4.1 (79825abcba525fcdf90b791dcacef51065a7a4e7)
C         3.92340094122737    1.41147350901676    3.57195345929269
C         3.67298066241097    1.99694725927426    2.17603020707813
N         4.77450077374918    1.66799155018482    1.28804408784666
C         4.81336191481056    1.25746945092511   -0.01880863805286
N         5.95322240026096    1.14359555661923   -0.63363152695560
C         5.55538450940260    0.79001472896758   -1.99506502327355
C         4.05721718180563    0.57248505231648   -2.15338445936989
C         3.51304781168910    1.12497742414327   -0.83526463602562
C         2.96818777749912    2.54492150954869   -1.16754817212346
N         2.47469990630287    3.44695226612340   -0.10660899409853
C         3.43947222098040    4.01643341837235    0.82793665239585
C         3.37609743987558    3.51955218522580    2.30037237451445
N         4.32562579521198    4.26863194305317    3.15790404015130
N         2.66023340551486    0.24573817454479   -0.02404155985681
C         1.39306746815824   -0.20960515011820   -0.27033714008212
C         0.70577915111805    0.22533892647974   -1.54056973584913
N         0.64264178507018   -0.86611621008794    0.54979181177981
H         3.19699699353051    1.88810871580055    4.23557551679336
H         4.92041493814541    1.65970247139691    3.94740797286087
H         3.75396736841452    0.33023422960656    3.57759575750398
H         2.76038255853497    1.50987674211398    1.82408672331268
H         5.68125992697651    1.74796533536361    1.74453263729457
H         6.09630169504016   -0.13331424471768   -2.23524917940485
H         6.05283551783423    1.60973034067010   -2.51817906636778
H         3.81970143024688   -0.48921675763965   -2.29098097358918
H         3.56543554364865    1.12890199429880   -2.96146068941742
H         2.14926110735094    2.52860828488023   -1.89549723989725
H         3.78257032735707    3.08336248233297   -1.66869591273311
H         1.61780653103012    3.21550898477341    0.39322284964514
H         3.21587963053770    5.09158060726452    0.85466749362921
H         4.50072609029402    3.99037204000621    0.54954487410287
H         2.36822377290658    3.65650026686281    2.71531355031476
H         5.29976078444068    4.04617378703998    2.93892674521883
H         4.26004059136669    4.14100303925401    4.16577047287929
H         3.19273991594252   -0.31292032914733    0.63522553722108
H         1.34906930353669    0.20891682155142   -2.41639364225633
H         0.38461449726666    1.25784143536033   -1.37532901123510
H        -0.13554911889945   -0.46313966763312   -1.66930371048499
H         1.05120500515759   -1.18010065501311    1.43155977653662
