39
 energy: -52.259833817057 gnorm: 0.119384165269 xtb: 6.4.1 (79825abcba525fcdf90b791dcacef51065a7a4e7)
C         3.54208654282650    1.26818156240125    3.51196363731772
C         3.52874492579823    1.96358781788851    2.14436585541300
N         4.73105823768951    1.54038046819591    1.44764783182059
C         4.81605456129945    1.24659390119167    0.11184556463757
N         5.93854314808975    1.30622371823985   -0.54139254633008
C         5.75330015383762    1.02025699566551   -1.96290709496636
C         4.39053165039488    0.34220848178023   -1.96423407510723
C         3.60844944453235    0.94724515967168   -0.79757815571503
C         3.06734243129980    2.34692066995186   -1.21186994745513
N         2.42894029400028    3.12717921904846   -0.13186021358299
C         3.31218055299657    3.95275667697643    0.68470483523643
C         3.44415041075494    3.51729584695194    2.17196140495637
N         4.59948749351821    4.25239085802923    2.74021899748859
N         2.65510491988562    0.03846666221671   -0.14666125339177
C         1.29219320213687    0.16058577504107   -0.18225834723773
C         0.48896379903612    0.71338977049391   -1.33302448285691
N         0.59977048864664   -0.41087153254140    0.74550472660969
H         2.72664220599740    1.47439382922001    4.21036544183663
H         4.44774212446830    1.39904274704551    4.11136661986209
H         3.45188642083227    0.18622602398652    3.37392704479471
H         2.58117143583836    1.68446162121014    1.67732169324363
H         5.60857600352748    1.89030393313789    1.82778715145264
H         6.49901973788971    0.27586682861401   -2.26721253873704
H         5.88493340131620    1.95763640613732   -2.50791353186031
H         4.70894879568286   -0.64788349201911   -1.61654789735907
H         3.80714589043428    0.23559597711698   -2.88766842871704
H         2.24414387853760    2.12852487049619   -1.90140913067554
H         3.84890328002681    2.95994427947894   -1.67840115957041
H         1.71221454199358    2.65682284016959    0.41835174520553
H         2.98463940307891    5.00094364111475    0.71059974390688
H         4.35456057716562    4.00182197309845    0.34488512267578
H         2.60848342722378    3.84481311834295    2.80531234592642
H         5.48715057912374    4.23132348883815    2.23229373123840
H         4.78454987617020    3.78515973651746    3.62556203797153
H         3.05150158415844   -0.55497972350555    0.57513282043725
H         1.05719322074584    0.47079042531296   -2.22712755757702
H         0.29989389952070    1.77285211814648   -1.13730844312470
H        -0.42916576679364    0.14001110388687   -1.49637524274677
H         1.25883889569245   -0.87996105934712    1.36888963148413
