39
 energy: -52.265054634085 gnorm: 0.111183459288 xtb: 6.4.1 (79825abcba525fcdf90b791dcacef51065a7a4e7)
C         3.61565235715078    1.59894262458964    3.67923244900770
C         3.56089206481419    2.03761658516475    2.20999522604836
N         4.65404272779417    1.56984046826841    1.37555835717881
C         4.72713507658853    1.24135823293242    0.04715347012512
N         5.86213224951690    0.98035115331987   -0.53069866551384
C         5.63868430859851    0.62885885289758   -1.93188377989643
C         4.13800702129065    0.64233706023476   -2.18619767190859
C         3.50917774666008    1.16543361223697   -0.89400893899603
C         3.01951336900194    2.61212547470403   -1.19540143961669
N         2.58447969378372    3.55620213812500   -0.14552209213972
C         3.47702885445082    4.20278869658137    0.81038154935260
C         3.55040505870856    3.59355518994529    2.23951580971488
N         4.62301615115806    4.13878432118068    3.10572350770851
N         2.62369380871620    0.24697112971609   -0.16546121303558
C         1.36667933702065   -0.27807497390535   -0.29943790380845
C         0.55656632995510    0.12499226684576   -1.50620471383697
N         0.74191373761036   -0.97978189805176    0.58601808206077
H         4.05372023148596    0.60080155212289    3.59527419140827
H         2.63080999947945    1.57597663984350    4.15481494781840
H         4.44187482170024    2.10100461173549    4.19217313746707
H         2.58560006942301    1.69349126925787    1.85740411712213
H         5.53302905409503    1.48046971844059    1.88190376121597
H         6.15544597286240   -0.32024404707968   -2.11890593591201
H         6.15690225421743    1.38749541547801   -2.52261232664012
H         3.80769057213491   -0.39041723780333   -2.35010883794029
H         3.77947416231718    1.30819246147985   -2.98151330669479
H         2.21241398655109    2.64405041559778   -1.93593383825842
H         3.89361149231219    3.09027172391487   -1.65541808409783
H         1.71270242172025    3.26818270222990    0.29574122280899
H         3.16864436994942    5.25476513773920    0.88034035650482
H         4.48989665796423    4.24820386360996    0.39028962506713
H         2.57928261136783    3.85840786709631    2.67941868400900
H         5.55338830552103    3.87960905297512    2.76865749260113
H         4.46243991991021    3.94983576194468    4.09309325561616
H         3.09840885096734   -0.10526766664722    0.65968669754638
H         0.75362795847840    1.18015321923263   -1.67638550753015
H        -0.49685650435631   -0.15145851818543   -1.40428340416669
H         0.88397351953246   -0.36077392251793   -2.43099885524037
H         1.29835048926289   -1.25653682419194    1.39645607025695
