39
 energy: -52.263787712679 gnorm: 0.110264700943 xtb: 6.4.1 (79825abcba525fcdf90b791dcacef51065a7a4e7)
C         3.35319681653298    1.33439524501186    3.49383399926779
C         3.49461461954972    2.00036203643242    2.11885007718766
N         4.66754510599918    1.49486065626074    1.42691063526908
C         4.78794619479242    1.33322030105335    0.07144813323134
N         5.95010325178495    1.12975196442375   -0.47467271853738
C         5.81647935157377    0.85016754862278   -1.90322889606992
C         4.34883708888888    0.48684222729087   -2.07904253001926
C         3.60734042716500    1.10323512094222   -0.89200820926360
C         2.92721579688993    2.46871773679664   -1.20251376586149
N         2.48387179843511    3.44542713885722   -0.18650858318469
C         3.51633503030992    4.05136463209729    0.64735555221781
C         3.40359102090365    3.55395022816587    2.11665537843853
N         4.46737261822506    4.27051886856373    2.86028380634766
N         2.77397071099304    0.08607842411953   -0.23677992025497
C         1.42058202771207   -0.10554877191841   -0.16379601426172
C         0.49460462846398    0.67913378544455   -1.05926882801233
N         0.85421059873381   -0.98765314616458    0.58977697575223
H         2.40615997547833    0.88788236312809    3.80845363122621
H         3.53914243489461    2.06025627693629    4.29080991414650
H         4.15982735285583    0.61747106918546    3.67600109944293
H         2.56030592865978    1.78335206176546    1.59548486316364
H         5.53234742348711    1.26195916302041    1.91153792095475
H         6.60581579806551    0.15579143253878   -2.21564848508669
H         6.07369470018271    1.81268843238264   -2.35092667666529
H         4.23490338072186   -0.60217051757445   -2.13927220406729
H         3.91039095308842    0.78974593469881   -3.03844364956401
H         2.15667953363441    2.15677516383025   -1.91650435183565
H         3.68057708390875    3.00626819804117   -1.79223654225552
H         1.74708246938083    3.23892546068959    0.48592183011947
H         3.45264915673078    5.14797001618221    0.65445498247330
H         4.55157369130405    3.86735048551772    0.33293439906097
H         2.43857522382758    3.77879396446297    2.59092333105596
H         5.33658212806142    3.84919280793559    2.52362842653777
H         4.44378952430201    4.19024890937984    3.87487036004981
H         3.31970340613077   -0.50099452054349    0.38596946485339
H         0.33061576541508    1.66813240677155   -0.63956797993817
H        -0.49868133070031    0.22391200633310   -1.00760845417669
H         0.84683541875874    0.74861918703479   -2.09344178856232
H         1.51536158648676   -1.50721057805330    1.16940127535301
