39
 energy: -52.262878620644 gnorm: 0.128039888706 xtb: 6.4.1 (79825abcba525fcdf90b791dcacef51065a7a4e7)
C         3.50781033447610    1.42572777510600    3.61413835746647
C         3.57652674924756    2.02637347642152    2.20396306664700
N         4.68285086559416    1.37182139960561    1.52743790657354
C         4.76478084011505    1.30852941505463    0.16098841941306
N         5.89406587770982    1.12673584516224   -0.45701057542691
C         5.60383079014031    0.76683828952705   -1.84374518773329
C         4.12039849261870    0.45854329196133   -1.98959562722775
C         3.55228531898922    1.21048072283232   -0.78516817526312
C         2.95822065630392    2.60778385618761   -1.12890801445944
N         2.47961622853039    3.49254192664771   -0.04681622617863
C         3.48100111637388    4.14446118521216    0.79026175099280
C         3.59530879388301    3.58218714193290    2.23586056249691
N         4.83185017171737    4.14455379896255    2.82982546091938
N         2.62393107328223    0.25658535895644   -0.16333303800822
C         1.31558263129100   -0.10715331216955   -0.33545819234935
C         0.51203505577248    0.20696620946768   -1.57266174060925
N         0.77633161149648   -0.93657471323890    0.49401479904706
H         2.87228489389455    2.02829441746562    4.26855329113185
H         4.54470593684321    1.50947793161382    3.95244893068442
H         3.21810875428683    0.37097838270588    3.65148354363378
H         2.66900656058249    1.73535010525571    1.66950099217715
H         5.55797735344811    1.65865569685925    1.96202906796272
H         6.30900114661663   -0.06415526061502   -1.96622256556581
H         6.04546882518577    1.54966200928728   -2.46437579975825
H         3.82665927258671   -0.59750316512933   -1.95734022925977
H         3.79073698644892    0.87806684674670   -2.94863653017675
H         2.05791073021173    2.49843738539405   -1.74397079980834
H         3.62773923946879    3.18879304525935   -1.77579273618392
H         1.48833067843492    3.41299573851441    0.17384068983433
H         3.34565260886193    5.23449529354651    0.77776863174310
H         4.42336143045487    4.02223058935615    0.24121013981881
H         2.67314947281168    3.91682097068548    2.73021131924971
H         5.60252536821227    4.19596817739327    2.15915865322208
H         5.14292363544525    3.56261771919600    3.60504736634891
H         2.93396162921403   -0.13661837328871    0.71959815169143
H        -0.40016101070774   -0.38285753894852   -1.60680407291465
H         1.13502111250279    0.03686552275806   -2.45553590191852
H         0.42176874008299    1.29786689230105   -1.58666735422926
H         1.28652141582120   -0.96424771375647    1.37830290336561
