39
 energy: -52.269513692219 gnorm: 0.100451214149 xtb: 6.4.1 (79825abcba525fcdf90b791dcacef51065a7a4e7)
C         4.17548091691771    1.58965717659276    3.92971938974616
C         3.78133552210917    1.99567562166279    2.50357424864378
N         4.69671254329978    1.47358275539734    1.50378343137370
C         4.62007296747200    1.28991580985137    0.14794590101728
N         5.74095304440953    1.20414084860018   -0.50514434379755
C         5.47083093057556    0.84486064383673   -1.89609629105087
C         3.97131762544980    0.63470159945868   -2.05160373067097
C         3.37642446958484    1.18963029728730   -0.75662718811942
C         2.75442790343420    2.57242733096616   -1.10949916916068
N         2.36874196286079    3.34081563183993    0.09200301063369
C         3.44143511862794    3.94941422748817    0.87136628346707
C         3.65390792679360    3.53972669751896    2.35662239049018
N         4.80846391867995    4.33577029343585    2.83766312715219
N         2.41829063732247    0.32116060360077   -0.05936332280991
C         1.25184118792084   -0.17878329449428   -0.57235490220007
C         0.92739248175413    0.01074667553206   -2.03312314704061
N         0.35762773647351   -0.77628121429104    0.14188281965688
H         3.49943290768758    2.05082673922150    4.65464681314148
H         5.18621414627583    1.95912147705632    4.12602294824792
H         4.12894965121751    0.51648723344124    4.13938354592004
H         2.82806441380336    1.51153035301337    2.27815297605587
H         5.68881950642129    1.56646963157046    1.71374904854430
H         5.93636790170421   -0.09645329857700   -2.21235506091588
H         5.84254090804432    1.64948219776565   -2.53441857446018
H         3.86920972990005   -0.43623822240918   -2.26425163756805
H         3.68995598159933    1.19810211422049   -2.95040941677123
H         1.82013182471026    2.48105507268311   -1.67479449255870
H         3.37111429799537    3.20038753638051   -1.76497650783131
H         1.72132131181859    2.76265826776429    0.62514904258038
H         3.24927579922253    5.03095124879250    0.87282545789468
H         4.35638753604547    3.70253872022170    0.31787236997851
H         2.78940036340174    3.95879315807370    2.88930452281913
H         5.60304878899570    3.87820943176862    2.38417596333744
H         5.04105698783153    4.08220694335664    3.79578180225036
H         2.62559702524379   -0.01797732195471    0.87460944906890
H         1.16020394032590   -0.95135644028902   -2.48180549376356
H         1.47594013711943    0.86088408011403   -2.44890497061980
H        -0.15625366405929    0.12207186254786   -2.14141073985621
H         0.67864499388108   -1.05182475702640    1.07142494453154
