39
 energy: -52.259497221144 gnorm: 0.116297163583 xtb: 6.4.1 (79825abcba525fcdf90b791dcacef51065a7a4e7)
C         3.73812419914828    1.23995771829139    3.47999616857019
C         3.63980938696407    2.03410707064912    2.17089244656227
N         4.80123246691084    1.60223739237845    1.41282729909202
C         4.82970247964181    1.35152926206559    0.06589096189544
N         5.93229017285640    1.11367799736782   -0.58062548230986
C         5.55624715515736    0.56027481447911   -1.88029163467519
C         4.04223152937058    0.59918690440068   -2.03238393760130
C         3.53219599486858    1.28236297276573   -0.76276108387546
C         3.01147658479903    2.71608447760014   -1.07392010368063
N         2.36844500303274    3.39448995712917    0.07022066039334
C         3.11383550522804    4.23509662697127    1.00094263015025
C         3.54016765813307    3.57745199687235    2.34434082370645
N         4.71591814734754    4.37358221037238    2.77080606978995
N         2.60079823189622    0.40768166292286   -0.03759369181207
C         1.45321528396131   -0.25125204465338   -0.38769125265006
C         0.72376135651208    0.20538554774123   -1.62640489932585
N         0.85115800502343   -1.07727629591566    0.40095818554051
H         2.77584277222182    1.43554196249356    3.96062004459999
H         4.63670683599528    1.39589223653886    4.08402786325170
H         3.63261011281538    0.17959410805352    3.23036896131256
H         2.66732372170871    1.83035336534044    1.71625714500073
H         5.68121186288333    1.72712966248994    1.90984634996754
H         5.96999738305079   -0.44662643595062   -1.74696180975975
H         6.07734105994384    0.97618001737031   -2.74546415478460
H         3.57740982423119   -0.39394098993651   -2.01841844888905
H         3.69699556757705    1.08308103370879   -2.95493191970565
H         2.31448501083826    2.57021531910825   -1.90683173899378
H         3.87619746542277    3.32239752756312   -1.37212969143866
H         1.41334224971611    3.17565385029110    0.34870513913655
H         2.61102545383043    5.20209221761728    1.13787778373611
H         4.09065217838773    4.31272000650452    0.50673138545279
H         2.75347234632917    3.71573074284977    3.09848256019099
H         5.50406087996752    4.20416980579177    2.14111715093679
H         4.96369265867484    4.01871331411315    3.69225121881272
H         2.97597021376424    0.08453624296094    0.84847551238012
H         1.22233977445779    0.30371181961316   -2.58708742817608
H         0.41988474961939    1.24253607082553   -1.45761372379308
H        -0.07592032410980   -0.54037453697333   -1.67893657391836
H         1.27438076499016   -1.46139209130808    1.24734014913035
