39
 energy: -52.260548637750 gnorm: 0.117056957203 xtb: 6.4.1 (79825abcba525fcdf90b791dcacef51065a7a4e7)
C         4.36054003640427    1.58891104071593    3.64054796674607
C         3.83386348549602    2.04824756038405    2.27463679912654
N         4.85254486853554    1.90691085726067    1.24877622011070
C         4.76244465336364    1.26726219575931    0.04020924072351
N         5.78160582421935    0.68611459614182   -0.51999995492258
C         5.47518165201186    0.09176532167891   -1.81986483342494
C         4.00251961328974    0.35936874841557   -2.09653152119188
C         3.53972191309702    1.18318882556066   -0.89405627151456
C         3.14758384614380    2.67261030320076   -1.12072212712283
N         2.49769832666042    3.43496195492850   -0.03478913018800
C         3.34685978198313    4.16073568995150    0.90363895520211
C         3.37702397774742    3.53500946598390    2.32720176871327
N         4.05546369859345    4.47036653004229    3.25613225065638
N         2.50757482639679    0.46530676683008   -0.13395450401344
C         1.33983249723394   -0.13834303922713   -0.51565247344497
C         0.51546411233926    0.46721574172210   -1.62414142609129
N         0.77235769823828   -1.06332473761637    0.18373167897848
H         3.54366034376892    1.49014854535231    4.36040321965713
H         5.15060081647957    2.27600419689075    3.95729325364395
H         4.85428917080969    0.62370261269338    3.49087354652169
H         2.90603740137993    1.47948686817192    2.17672241507439
H         5.78087915381586    1.68536353937111    1.60388466228530
H         5.64616140868979   -0.99152692394258   -1.81211565130465
H         6.17038083238305    0.50366623799453   -2.55476293497959
H         3.42609976079707   -0.55422300770746   -2.28533699949980
H         3.89954561420361    1.00574946625580   -2.97745404931708
H         2.57591616213915    2.73256782081649   -2.05368408380425
H         4.14485293305630    3.11450704035528   -1.24100649774685
H         1.58814541688867    3.07266538269984    0.24649154578217
H         2.95780532594091    5.17157647460507    1.08663403073629
H         4.34036481642233    4.19037991016067    0.43833269175287
H         2.31666205267053    3.42921373214101    2.59399782746246
H         5.07044662697043    4.58313268202497    3.19721611188631
H         3.78548894268863    4.18958963177211    4.19669764867683
H         2.97308228361275   -0.01465219008786    0.62974558793031
H         0.80557168840984    0.21995657714778   -2.64191346338268
H         0.46702685994706    1.55856151051986   -1.56818693956222
H        -0.52894327039304    0.13918528801966   -1.62834912095652
H         1.43318026736331   -1.32460100114380    0.91726636478966
