39
 energy: -52.264075481268 gnorm: 0.118446241829 xtb: 6.4.1 (79825abcba525fcdf90b791dcacef51065a7a4e7)
C         4.18643245006198    1.83575717183524    3.93418867529081
C         3.71282016369538    2.13199322723015    2.50519352051798
N         4.55707212674248    1.26594563815864    1.70065766096592
C         4.63894761058096    1.13470505802182    0.33905018218154
N         5.81159111432330    1.02902961690141   -0.21230839742818
C         5.65848523945976    0.69185364013057   -1.62640404385739
C         4.16895049602608    0.63979348789354   -1.93537901141014
C         3.48473894620721    1.18469344873362   -0.68088844414008
C         2.93077152540538    2.63720125147535   -0.76375700780978
N         2.11770261046361    3.06785980051508    0.39219881757770
C         2.59768815856590    4.10738619692671    1.29633858116463
C         3.76720421988938    3.66078397304503    2.21924318282157
N         5.03995504219476    4.23360880745478    1.71918100379144
N         2.45722821231268    0.23843318106047   -0.22564108156695
C         1.25949275818272   -0.14808979004781   -0.76391458092475
C         0.85748114664714    0.45970557567609   -2.08452197800595
N         0.61233848485935   -1.20276790060372   -0.39567224537895
H         3.42506340897356    2.19576607746696    4.63128896976471
H         5.18761584960003    2.14124144033344    4.25188629625672
H         4.13478331721859    0.75861383570019    4.12103767898040
H         2.66685471884975    1.84508161893833    2.37262197258594
H         5.47489845321501    1.09433227008602    2.10702381547687
H         6.14735106830688   -0.27755499923439   -1.78155981090807
H         6.09165251351567    1.45222204872285   -2.28004422471295
H         3.90895641293238   -0.42420189778968   -1.98899029588244
H         3.80073256797726    1.04455498140625   -2.88670433423715
H         2.33403145289556    2.56015540477419   -1.67960748169772
H         3.77494762468803    3.28599940728970   -1.02967869344967
H         1.68658483794453    2.25419510387016    0.82780340331482
H         1.76664502801870    4.46872104964098    1.91718807842948
H         2.94059081904837    4.91259472866856    0.63414681165825
H         3.70133196661442    4.16964813225212    3.19056104854542
H         5.49954534540652    3.74405344257656    0.94750104478959
H         5.76500317871533    4.43112763359043    2.40596831708353
H         2.61275905527288   -0.32128987450465    0.60671453660286
H         1.60380867719131    0.33126052130807   -2.86404523585584
H         0.83738437925082    1.54251560067075   -1.93079743995545
H        -0.14143255385935    0.08515830200904   -2.33007080928409
H         0.95292689377034   -1.57520727822355    0.49219786434238
