39
 energy: -52.263773997426 gnorm: 0.109912219752 xtb: 6.4.1 (79825abcba525fcdf90b791dcacef51065a7a4e7)
C         3.74935080872832    1.33229419189384    3.55225800750052
C         3.60721851872002    2.04454483676709    2.20074441764552
N         4.75055221312259    1.63022934744759    1.40625810382828
C         4.84653733661515    1.19615535767444    0.11000610325614
N         5.96720014685618    0.91136291415419   -0.48435447694459
C         5.69609150610495    0.81742097054067   -1.91769692156959
C         4.20121780124976    0.54837842926887   -2.01698569104150
C         3.58542876184645    1.19565200197955   -0.77575695869727
C         3.18110987307766    2.66970167657399   -1.07110386133668
N         2.33630547811011    3.35764027750148   -0.07319218060364
C         2.91211643316760    4.19506936566769    0.97352852131434
C         3.48918805258258    3.59393031605103    2.28676667812366
N         4.82110720771238    4.15573490486890    2.61608735471750
N         2.58679229593370    0.36810056993965   -0.08559700781333
C         1.29867419130895   -0.05552684462022   -0.27268013146308
C         0.56660395991665    0.20525709542782   -1.56538942250949
N         0.65107460057510   -0.78994756326953    0.56874600272715
H         2.82154012723090    1.31786421115376    4.13035589093182
H         4.43360685407705    1.85977318960213    4.22321269382995
H         4.17580541890400    0.32604005185843    3.49388832217540
H         2.68886961934405    1.74714637142844    1.68876135609800
H         5.64296900194292    1.63427296800004    1.89673306364630
H         6.20218682691392   -0.09217317740161   -2.26312742885135
H         6.02441902452600    1.67704543209379   -2.50615789181624
H         4.00016774868142   -0.51669932175299   -1.85041578064795
H         3.66723050502466    0.96237632587710   -2.88179751669812
H         2.53435302028972    2.54915402629298   -1.94745464872611
H         4.10678348153472    3.24504494823759   -1.19914746659840
H         1.69279588554975    2.64568205459649    0.26838507451523
H         2.09860622248551    4.90522411071038    1.17485173184347
H         3.67700824711720    4.81517578104893    0.48891578911737
H         2.80437079554077    3.91722324622789    3.08253504262670
H         5.44134500384038    3.97659817165586    1.82261853215068
H         5.17959551408739    3.74708051799469    3.47682717041552
H         3.08278265186081   -0.15143354996587    0.63160134306354
H         1.23066727085281   -0.03185146054154   -2.39240748218656
H         0.13522807515331    1.19434419125886   -1.74464959375035
H        -0.16170112686474   -0.59204721813178   -1.74507245618087
H         1.27130690884929   -1.14176151743792    1.29988464045236
