39
 energy: -52.270122676540 gnorm: 0.118851969911 xtb: 6.4.1 (79825abcba525fcdf90b791dcacef51065a7a4e7)
C         4.08974411180581    1.42712701058503    3.60321507064904
C         3.75517701179516    2.06657147382643    2.24923310216127
N         4.86915624973383    1.74918501336776    1.37265233824665
C         4.80889153897120    1.22769089077511    0.10682666257004
N         5.89285175480093    0.72576087183471   -0.40635250784253
C         5.52131417699505    0.42798857470020   -1.78841149168796
C         4.00873600135442    0.26121983753798   -1.82283520580668
C         3.48847972483509    1.13774257081865   -0.68272587172725
C         3.11256959643026    2.59222880326351   -1.09099952783656
N         2.37034653199105    3.31524807624169   -0.03784723251524
C         3.01373440533149    4.23170313349152    0.89737045751953
C         3.42584283262855    3.58757745890668    2.25171273845616
N         4.56522557680979    4.39602079195687    2.74801050339290
N         2.48971814334326    0.37582205259182    0.07910703596571
C         1.36790265445208   -0.11964879263968   -0.52896141063850
C         0.71493415069511    0.67383168330144   -1.63306888225882
N         0.63142486224469   -1.08405523625742   -0.08819201569785
H         3.38300647418580    1.74802032696286    4.37314197348925
H         5.05627536818729    1.81157427300893    3.94179778017791
H         4.27008584357854    0.35359391942458    3.48998297357857
H         2.87467698548450    1.59075425276451    1.81076432007706
H         5.79680756301610    1.84718566502560    1.78112346505982
H         6.03494183186445   -0.47137410293475   -2.14917405429646
H         5.80184669660566    1.32244224494636   -2.34903045925165
H         3.74240186586800   -0.78193870839377   -1.61440381744927
H         3.60569096131715    0.51294088883639   -2.81209118203953
H         2.55021991075060    2.55413171162620   -2.03074858792244
H         4.04654548582466    3.14611987625814   -1.24968283122298
H         1.63684485944309    2.75132174923192    0.38832939182966
H         2.39525310048894    5.13120705031645    1.01993974854054
H         3.91780239636658    4.62390717951237    0.41438184224664
H         2.57776803934502    3.74847588464019    2.93113979037182
H         5.45352974204383    4.14905812023059    2.30494977263020
H         4.48601031706369    4.27867174666935    3.75614712556602
H         2.91642116624853   -0.06493957633618    0.88777837312140
H         1.38520282195036    0.79421228891722   -2.48006819922741
H         0.35752181576661    1.63401599735453   -1.24990420594045
H        -0.18182564627254    0.09088553446493   -1.86631580254741
H         1.15165023197245   -1.54579243285349    0.65959753656351
