39
 energy: -52.261865408062 gnorm: 0.138364716041 xtb: 6.4.1 (79825abcba525fcdf90b791dcacef51065a7a4e7)
C         3.74408753403351    1.59775266239528    3.78075964897349
C         3.60429106688834    1.99981430428620    2.30668538574444
N         4.69078450134377    1.40802565637239    1.54550473897412
C         4.60523210532611    1.30078739481453    0.18202267459642
N         5.75587144454090    1.20987665207918   -0.41632564165899
C         5.47393994185725    0.83252462705745   -1.80013040316320
C         3.98475505276997    0.57983616368710   -1.98819006584347
C         3.37460551897278    1.22371110624517   -0.74241698710364
C         2.75678184451991    2.60117015334488   -1.12245175588825
N         2.47503267725446    3.49644363285901    0.01854977600022
C         3.66697737144979    4.01862017102654    0.67814774193218
C         3.62496109892055    3.54902771931739    2.16027183894333
N         4.76196563437992    4.29078846234094    2.75617185370359
N         2.56363212986412    0.24714630357281   -0.00276824172201
C         1.33056908883335   -0.17492022204318   -0.42124637371971
C         0.78935616513444    0.14719083146964   -1.79178110752747
N         0.68084353586831   -1.04736579370414    0.27406104221871
H         2.83495454985547    1.90699028539299    4.30333725895775
H         4.69063396689843    1.99456277397550    4.15919353372868
H         3.73338590933690    0.50371959992674    3.80895688486331
H         2.71283891064677    1.60106460131141    1.81653343724501
H         5.68098961492690    1.56737327957054    1.72183378044968
H         6.10887721958258   -0.03337147488563   -2.02350186578807
H         5.89095723857089    1.62896322584461   -2.42047032526537
H         3.72291819612165   -0.48459158111588   -1.95668932484883
H         3.53744013362591    1.00912376362326   -2.89376043499423
H         1.79906045870084    2.57551610480914   -1.65436194608183
H         3.50841503053743    3.13786804302900   -1.71514863575113
H         1.83245615722519    3.12372328263949    0.71557135254140
H         3.63411117782843    5.11515722646622    0.62179208569223
H         4.64442718836058    3.73290945182435    0.26899961292192
H         2.74374808243075    3.91671493888408    2.70342008076705
H         5.62583694189375    3.97326732681419    2.30975908776872
H         5.01047459509493    4.13249094194906    3.73063093141010
H         2.97262734666251   -0.28966066630713    0.75542486416835
H         1.68797130687519   -0.12137970605141   -2.34088958844732
H         0.52354678156783    1.20035479770338   -1.92102384771301
H        -0.06661785001583   -0.50609226689293   -1.98910861294796
H         1.10277010511291   -1.38958969276946    1.13886486550628
