39
 energy: -52.255847901938 gnorm: 0.124815986998 xtb: 6.4.1 (79825abcba525fcdf90b791dcacef51065a7a4e7)
C         3.80936285811603    1.64685165813476    3.90349461652901
C         3.62668189804398    1.91414712894119    2.40373718527796
N         4.61804792201201    1.19967186970526    1.61837339927299
C         4.73676167127441    1.23954041399534    0.25374152356044
N         5.90943498554569    1.34559880066727   -0.29748010367568
C         5.68244912899588    1.07925598846607   -1.71675262023230
C         4.28456807582551    0.52406502670028   -1.95037860673260
C         3.56917893408025    1.13992648778005   -0.74715751065687
C         3.02426909362972    2.56299449455723   -1.06571159018794
N         2.27463564844034    3.06972585544783    0.10221595127027
C         2.74904814329808    3.94263531552214    1.17059407808939
C         3.77044145386766    3.45477577570856    2.23723508974844
N         5.08322589594141    4.06568258619088    1.91868365599022
N         2.54164924090481    0.25064488876343   -0.18876886834534
C         1.27296254482246   -0.12567289032019   -0.53880819724821
C         0.77763021933880    0.38056617379501   -1.87049896744563
N         0.40494698208651   -0.76090660094507    0.17518344882905
H         3.01581795405086    2.01286789005938    4.56042433208829
H         4.69733168782272    2.18994223577584    4.23992381056543
H         3.92788825965294    0.56538539356370    4.02266004449594
H         2.62912921653842    1.74223049773254    1.99231219456970
H         5.56315948259508    1.32609227327288    1.97582519974428
H         6.33302845978527    0.24135656964530   -1.99511806873705
H         5.84937615231265    1.96371629040861   -2.33554566592940
H         4.28966883210960   -0.57253441654995   -1.95132877244570
H         3.75892839151920    0.82247627692089   -2.86639707141643
H         2.23027710895346    2.69249746853300   -1.80976975541556
H         3.85523580892403    3.25648102712604   -1.24697773379819
H         1.76374876837671    2.27180684865925    0.47636028499010
H         1.92033948161739    4.36961734440429    1.75160867435448
H         3.26852427622371    4.74538969436334    0.63191893529163
H         3.58395280405322    4.05229548528670    3.13997118848332
H         5.56443862742656    3.71910219167347    1.08520060279623
H         5.73164978856033    3.95698098305933    2.69593247110720
H         2.63160351230446    0.01270930154747    0.79387577251810
H         1.41143039894975    0.06491706520434   -2.69501239479815
H         0.60231385917607    1.45831736621082   -1.93553120622535
H        -0.16450765946302   -0.16491259180857   -1.98555374523900
H         0.76098623681709   -1.16108779601636    1.04473272209440
