39
 energy: -52.265780882866 gnorm: 0.114670769950 xtb: 6.4.1 (79825abcba525fcdf90b791dcacef51065a7a4e7)
C         3.87901864255393    1.69247099831750    3.78184291001295
C         3.68945877321381    2.15845320723103    2.33235362136281
N         4.77616304901309    1.47827263645734    1.64934119097980
C         4.74614006420621    1.06579571411938    0.34287112651974
N         5.85357878270345    0.73177657894895   -0.25064978890687
C         5.60498367922190    0.49757531746035   -1.67196811731017
C         4.09984811993249    0.33047379831266   -1.82537467249855
C         3.52670943918804    1.04230165067629   -0.59915236710407
C         3.26268489340096    2.53651685269361   -0.94720120457943
N         2.32158958550356    3.18894087638226   -0.01367871808237
C         2.71619467076523    4.11119609493213    1.04566169173000
C         3.71712475066190    3.70541285869894    2.16479225247548
N         5.04013986834680    4.32151960549892    1.90377767394303
N         2.36728192242034    0.43061573528890    0.06417644520479
C         1.20815574598573   -0.04138824168054   -0.49021269469612
C         0.88612371166710    0.48584517735147   -1.86620423545144
N         0.40576866907416   -0.96587673378619   -0.08002617945192
H         3.11240061279464    2.18451179455667    4.38635155580248
H         4.85843580616233    1.81345522432189    4.25378088878191
H         3.62335246614566    0.62895733315712    3.81914496241987
H         2.71229745836827    1.78556314492075    2.01605317966321
H         5.71286601029942    1.69582911043595    1.98437328750717
H         6.29650129850517   -0.30940006567372   -1.94291152769757
H         5.88605377729018    1.40227325916139   -2.21562308721163
H         3.73546692262050   -0.70317781267156   -1.78866013781275
H         3.79276364516145    0.83864057840410   -2.74835995414185
H         2.94093378764956    2.73525606003861   -1.97569321110455
H         4.21831102244480    3.06866842713110   -0.85843137342844
H         1.56678100211337    2.59466342379896    0.32508733427522
H         1.77364213927410    4.25660562290189    1.59073091356527
H         3.12165147079420    5.01769176453386    0.57842370204985
H         3.30393841934078    4.13939957336231    3.08548377115662
H         5.38819611240159    4.31227151113560    0.94193101988028
H         5.79189152629947    3.92093270147760    2.46125850747677
H         2.52830911713843   -0.00926598902452    0.96465960486091
H         1.76224784342972    0.76060838014810   -2.44764306299762
H         0.35581596403075    1.41092179633966   -1.62223783086319
H         0.33304660881891   -0.23751343603712   -2.47387725602632
H         0.54614299321782   -1.26941479701468    0.88495287417030
