39
 energy: -52.269757444782 gnorm: 0.112461642826 xtb: 6.4.1 (79825abcba525fcdf90b791dcacef51065a7a4e7)
C         3.80726470744625    1.65171966039742    3.91009886764471
C         3.64987434733884    1.92709390819295    2.40893637115884
N         4.71168476991336    1.36109256784828    1.59513119701500
C         4.77244087072312    1.23912660096690    0.23155662952801
N         5.93828161400144    1.19729491711737   -0.34230905843076
C         5.61860601831268    0.95408424031747   -1.74781666278341
C         4.16469731374959    0.53649488012338   -1.91710382694048
C         3.52423073687162    1.14131931287970   -0.66698466173881
C         2.98997360887856    2.57612151387410   -0.94883205009824
N         2.10831870499248    3.23239535199139    0.03847285380809
C         2.78512633066110    4.07660035239985    1.01710419998325
C         3.61836891370349    3.46606898565198    2.17983052373563
N         4.99738631676823    3.97484496867465    1.98607000660764
N         2.55570432711378    0.27353519409396    0.01664113410719
C         1.36140742347581   -0.13586259459998   -0.51227937989137
C         0.87366246875109    0.45946107836368   -1.80947905411755
N         0.56239570499762   -0.97419996091812    0.05827097143473
H         3.02974237604129    2.22190552915765    4.42544840657368
H         4.82157641463569    1.87491336384604    4.25357659375919
H         3.68071554803801    0.56837871418505    4.00051819678219
H         2.76405384066152    1.38309943295312    2.07229228853613
H         5.63418733061465    1.65047271407780    1.91487784868621
H         6.28820656761920    0.23413578283048   -2.23374417028492
H         5.73435738704233    1.90288881848819   -2.27641006370868
H         4.03584571661122   -0.55249338539492   -1.92479033656455
H         3.82158200632247    1.01455037960484   -2.84347901964253
H         2.61785823121173    2.60562534985991   -1.97911187620410
H         3.87466293320588    3.22232559489626   -1.01232817869715
H         1.44961851361911    2.55303088093870    0.41562281755191
H         1.95901318638261    4.62113111448593    1.49425509839549
H         3.40876156069732    4.82078796292942    0.50553323780002
H         3.21855412410761    3.93699381368941    3.08819070652934
H         5.52141216580828    3.49167674004788    1.25236500070154
H         5.56048276692610    3.81505164716828    2.81900084755420
H         2.77914268483872   -0.23666283610514    0.86520984816253
H         1.56818450552110    0.02707667599387   -2.52491059860335
H         0.84091834423051    1.54619794229095   -1.92966000327560
H        -0.14505446663107    0.10288758478838   -1.99245340566096
H         1.02749537164788   -1.26884388404186    0.91844080636773
