39
 energy: -52.269625627166 gnorm: 0.115016649488 xtb: 6.4.1 (79825abcba525fcdf90b791dcacef51065a7a4e7)
C         3.74858483598102    1.22933274713577    3.44479121152178
C         3.68605166210797    1.99921930113043    2.11910050718612
N         4.90929890034332    1.71706518488575    1.38825646317979
C         4.90277220333372    1.27973853669968    0.08956272642100
N         6.01297109940757    1.00722638492594   -0.52967220099810
C         5.61085326479916    0.64831273266355   -1.88845024892770
C         4.09985192634575    0.47283875749754   -1.94297892010669
C         3.57284716430952    1.15302244621265   -0.67869093459667
C         3.07028782536270    2.57830150243190   -1.05224105277260
N         2.28153851426635    3.43103503638639   -0.13927789372280
C         3.07838108872124    4.17712571272794    0.82863768870723
C         3.43642588314795    3.53327464466712    2.19839459855184
N         4.48674403317407    4.34575737602263    2.85777971407969
N         2.70240525422585    0.23258950648575    0.06533258600159
C         1.42529331186504   -0.10781626862536   -0.29078192400491
C         0.77308755953479    0.38293924393487   -1.55917425091842
N         0.59891118419553   -0.72545949409790    0.48534074182524
H         2.77911082766694    0.81712287961745    3.73709451156998
H         3.94423035625431    1.87697412242427    4.30438652213688
H         4.50334993821474    0.43678755037501    3.44035282732281
H         2.77348759546686    1.75168222240297    1.57147890077244
H         5.70814081479151    1.45322420285320    1.96204152081216
H         6.16048239317803   -0.24840058042457   -2.19930274573399
H         6.06018507477078    1.45027380744078   -2.47836452073573
H         3.89391250321933   -0.60196652197992   -1.87269497463687
H         3.61985963494108    0.87870912716164   -2.84259707242988
H         2.38972611599552    2.48047504027840   -1.90551861615600
H         3.89585423259820    3.20057888869937   -1.42034107313781
H         1.54783241550229    2.88264145239504    0.30637214868746
H         2.56636657241013    5.10905353207793    1.10432108290165
H         3.98668647362979    4.48142855767398    0.29307998099457
H         2.53614725489047    3.54610254440218    2.82773879885001
H         5.23468158868290    4.40044266291659    2.16209544821849
H         4.77643280697046    3.87912875881106    3.71493982259539
H         3.15403607540846   -0.31439273667350    0.79137364878892
H         0.75003078099896    1.45839902945566   -1.71413892892735
H        -0.23996220952331   -0.02653763728007   -1.50846419773682
H         1.37532024206722    0.06458388733905   -2.41613056601299
H         0.94487344842257   -1.10485886910735    1.36817204179885
