39
 energy: -52.267097507993 gnorm: 0.108445369393 xtb: 6.4.1 (79825abcba525fcdf90b791dcacef51065a7a4e7)
C         3.69292989151853    1.36769176234745    3.62182379354643
C         3.57376162397299    2.07504672208621    2.26552757312264
N         4.68364294172745    1.55143139507650    1.48830932094223
C         4.67127171313337    1.21134289505338    0.16087217546418
N         5.78430394029845    0.98568833671027   -0.47197507755328
C         5.48449886121128    0.80081736526782   -1.89068406169562
C         3.99018843226504    0.51288120785844   -1.92260024938882
C         3.38460098580945    1.17976196893019   -0.68674351509231
C         2.92286006419339    2.61209007059422   -1.08518737947063
N         2.49585024539081    3.46026312032613    0.04664599761678
C         3.56822583521363    4.14295197960110    0.76247871991469
C         3.61723212858094    3.63028870961714    2.23004440260517
N         4.80793430191979    4.24418849758698    2.86521408293308
N         2.48454065545290    0.33270382113724    0.10749878402101
C         1.31221914889634   -0.22109554974519   -0.33145122956310
C         0.76710324418571    0.27596065971619   -1.64705611029113
N         0.76101345949598   -1.23390918278577    0.24918446567761
H         2.95736051764096    1.72510945602841    4.34737760716198
H         4.68513018181509    1.57554423390544    4.03286704533825
H         3.53994446083668    0.28639256847295    3.54967492179788
H         2.61654747023415    1.77075883481088    1.83531001467445
H         5.61467029784022    1.75929906251913    1.84463621238676
H         6.17558682393580    0.06988563989555   -2.32766513206811
H         5.58854904979818    1.79474488451419   -2.33150277124770
H         3.84153402633555   -0.57360268098028   -1.91915272229161
H         3.51659980470305    0.84867014054494   -2.85394110020668
H         2.15838391397823    2.54965757226488   -1.86780813451376
H         3.77281414837894    2.99281413030626   -1.66563024611880
H         1.77846003307925    4.11590277320677   -0.25856221962965
H         3.37634113945936    5.22347658499525    0.81040054330982
H         4.49742256989513    3.91436352175252    0.22509459341737
H         2.65793976719286    3.94869275126842    2.66029702284530
H         5.68648658750615    4.18087859906907    2.34510313180934
H         5.08114511856123    3.76305851240921    3.71976372476147
H         2.72392746045822   -0.07939450691627    1.00369325374852
H         1.51720063728945    0.70565735149686   -2.30574729393750
H         0.05048834792697    1.09871583445198   -1.56927648864903
H         0.27742416975188   -0.56183670689422   -2.15373001173496
H         1.41758829878477   -1.62374277807012    0.92739102351206
