39
 energy: -52.267844627991 gnorm: 0.118098562434 xtb: 6.4.1 (79825abcba525fcdf90b791dcacef51065a7a4e7)
C         3.44249311898204    1.47755735293750    3.63082299516321
C         3.59123206283971    2.08259721472777    2.22871920641250
N         4.74491318205188    1.52974740344607    1.54063874157704
C         4.68668262197560    1.24563321404378    0.20131393265015
N         5.82029492577604    0.97396420384551   -0.37433827571001
C         5.55284789102955    0.65624212484998   -1.77588039401767
C         4.05970477675960    0.37001693797650   -1.84996358246754
C         3.42325398547829    1.10581636673617   -0.66999003406236
C         2.94219828350749    2.50675532769582   -1.14903225656626
N         2.68831988660044    3.60767218160364   -0.19702934642917
C         3.75862726807992    4.11369155738969    0.65552942288110
C         3.77966226528773    3.62435194010535    2.13169964553308
N         4.99076704344039    4.15901066747217    2.79912034346314
N         2.38293305378475    0.39973908625524    0.09002587781629
C         1.20633860028923   -0.14998386648599   -0.34256949649336
C         0.60309838932798    0.38631754158900   -1.61674157884562
N         0.65322969825510   -1.17009636464820    0.22329093195453
H         2.37125028964135    1.40221309720268    3.83576223306286
H         4.04874614307270    2.08782853319008    4.30657958988429
H         3.79125990429496    0.44275444853551    3.55759303299281
H         2.68840307610775    1.82621809113475    1.66915976827612
H         5.66876410188548    1.63519180343911    1.95581425920283
H         6.26858672108269   -0.09433259743533   -2.13249184957228
H         5.86687650872315    1.46758508154067   -2.43629550747012
H         3.87965771901252   -0.70173865884962   -1.70340210402278
H         3.64044073919766    0.62845241776390   -2.83071071970586
H         2.01804532828644    2.40312896786286   -1.72870436175876
H         3.72933209930754    2.94053088595308   -1.77875108319131
H         1.91433682359814    3.41380776323314    0.43624068352665
H         3.71017004423611    5.20432311573091    0.77728473851912
H         4.73964241400981    3.85049020068201    0.23986696513275
H         2.88316224700309    4.01032033676316    2.63573971588188
H         4.86568946515563    4.45426112005796    3.77049073087900
H         5.47994442508849    4.82023634974912    2.19922753070223
H         2.76303043986846   -0.15241976618745    0.85222152509492
H        -0.13174877957056   -0.36637787849825   -1.88988746496054
H         1.25672445169109    0.29650373872796   -2.48922029729910
H         0.01218053567419    1.30508444428467   -1.54538376687195
H         0.96159985360161   -1.44145331913070    1.15833004116943
