39
 energy: -52.260042462305 gnorm: 0.104966538430 xtb: 6.4.1 (79825abcba525fcdf90b791dcacef51065a7a4e7)
C         3.64779473406569    1.50654505738514    3.73998263146862
C         3.63988654914731    2.09945502206314    2.32489013359534
N         4.70767053070269    1.59972852938446    1.47625089505388
C         4.64836689073273    1.28807751685384    0.14311199329538
N         5.75254329374290    1.24184979116126   -0.54166084192983
C         5.47298103877734    0.93186606457855   -1.94257146635722
C         4.01381757103001    0.49885501636927   -1.95783397367354
C         3.37374042954656    1.08630015567561   -0.69925642782542
C         2.99501074140837    2.55358275728892   -1.05586774405680
N         2.53429555039443    3.35765664545172    0.09477921478425
C         3.53717548201564    4.09639015470699    0.85436767119196
C         3.74564293772457    3.65210231691982    2.33021451959303
N         4.89548675998531    4.34510316941500    2.95925676249979
N         2.29571271607535    0.38622076163414    0.01220827566774
C         1.26907924885476   -0.36117088756770   -0.49880837029448
C         0.88181615890875   -0.24891147401388   -1.95223795119365
N         0.57548165894414   -1.17258885211399    0.22733228229629
H         4.06642527039447    2.16922513303882    4.50211230347740
H         4.21571693122095    0.57198088235792    3.76595952463675
H         2.61293972903477    1.22127563545015    3.95332373090493
H         2.66227011515686    1.91022155968194    1.87500791806807
H         5.63216428704649    1.66514055149896    1.89817780653454
H         6.14838857355022    0.17494685098651   -2.35936180197530
H         5.69394418344989    1.80293630818916   -2.56341879606124
H         4.07712837559979   -0.59577783443755   -1.97594268773541
H         3.52447999254439    0.85497965677701   -2.87334484415611
H         2.20780682711793    2.48855191687413   -1.81540566504259
H         3.92624595308092    3.00628233984252   -1.41939319944686
H         1.81800805139795    4.06707979805100   -0.05121784167873
H         3.18698812668518    5.10282846121984    1.12101428672086
H         4.46842702965049    4.21854502556196    0.28666202719868
H         2.97092931655992    4.18421281592325    2.89891260172200
H         5.74212336268564    4.19847637549582    2.40420297138878
H         5.03003969785958    3.88304027516389    3.85635134733576
H         2.44785206839315    0.23488183141063    1.00429988149857
H        -0.19263061811380   -0.37484204593369   -2.05647344184263
H         1.47732240657605   -0.93551348822035   -2.56089437514858
H         1.10431879439008    0.77482678877692   -2.26982418075622
H         0.88551329579119   -1.14532802846894    1.20004093186088
