39
 energy: -52.266014407589 gnorm: 0.119135722794 xtb: 6.4.1 (79825abcba525fcdf90b791dcacef51065a7a4e7)
C         3.97978907890448    1.43652339377869    3.61434631948235
C         3.70947826645764    2.04165555594172    2.23056936396260
N         4.80271359726063    1.84780164399935    1.29390779151178
C         4.81629868795901    1.31302778780904    0.03226800426596
N         5.92651527803782    0.82366749181740   -0.43485294151853
C         5.59446651153924    0.25393263294982   -1.73943768281987
C         4.10674451841147    0.35256505588753   -2.04577809891407
C         3.56821940911855    1.14962066267887   -0.85687061075718
C         2.98952564922271    2.57249336852852   -1.10999658234309
N         2.37651001320685    3.42500147642906   -0.07065860901317
C         3.10865371509651    4.16558132916583    0.95109332789033
C         3.35840805863307    3.55239301586308    2.35843021417472
N         4.45189009131518    4.38073230111654    2.92077904136477
N         2.67293069563111    0.29393734883579   -0.06649024188827
C         1.39784072977161   -0.08836903019292   -0.38538832093324
C         0.71856773048941    0.52074522397851   -1.58647135209080
N         0.66019891810690   -0.89566429181779    0.30084480092587
H         3.18286100344368    1.69195401490769    4.31783682051671
H         4.94558873770674    1.84246049876876    3.92909495427945
H         4.11976512235979    0.35112388671163    3.62585982168206
H         2.76511235943204    1.58072709412364    1.93114461981072
H         5.75859743484256    2.13277323052970    1.49901029136215
H         5.91322422545331   -0.79195851842290   -1.82500308519585
H         6.20747349984824    0.77735079121243   -2.47652339767214
H         3.65307206949285   -0.63974620740809   -2.15558209354072
H         4.00111647923620    0.98374239701629   -2.93734641358295
H         2.16897321010685    2.51190470893199   -1.83376419737596
H         3.76783777550201    3.06160547978260   -1.70940148653473
H         1.60923681068678    2.88013765249619    0.31931493355024
H         2.47047996719578    5.05099372915236    1.07530607395058
H         3.98172875608127    4.57197790058483    0.42476382819151
H         2.47156031494301    3.57376691533065    3.00633800831629
H         5.20671210138740    4.37114937283380    2.23046783313466
H         4.81783594810591    4.15490779507283    3.84353156655191
H         3.04728130050549   -0.23038024565759    0.71788740555498
H         0.48985922052456    1.57030873531908   -1.42134026585438
H        -0.20554275441182   -0.01101202509575   -1.83094363948594
H         1.31531551678178    0.45403607977603   -2.50181305592349
H         1.19623625556444   -1.32300045219102    1.05786043084864
