39
 energy: -52.259137961322 gnorm: 0.128891376721 xtb: 6.4.1 (79825abcba525fcdf90b791dcacef51065a7a4e7)
C         3.91685629925178    1.65978164024568    3.89761233749516
C         3.63046051159429    1.94683522100661    2.41785923387311
N         4.62019294712780    1.20445945247543    1.65668534784447
C         4.78269518779376    1.20567820834746    0.29598914876162
N         5.93712449883663    1.12393668042487   -0.29635167366652
C         5.73110229386611    0.81910118875974   -1.71106921373931
C         4.25182841228216    0.56182723785730   -1.96096606707911
C         3.59612924342663    1.07679240386043   -0.67890621698630
C         3.11207281487018    2.51480458466021   -1.02723991205322
N         2.27970118000248    3.10135676183466    0.04322528120924
C         2.81981742338313    4.08689965204109    0.97352073366785
C         3.65718541820291    3.47664191226033    2.13342357706075
N         4.99404246502259    4.07979173301102    1.91637825134094
N         2.50418555446273    0.23970661792952   -0.16375256792411
C         1.20174667636394    0.01669987042647   -0.52100527843635
C         0.64505823014684    0.45623958901500   -1.85214584884213
N         0.33871646119139   -0.59628202042516    0.21804073825172
H         3.21963318765483    2.15153607010788    4.58120253714316
H         4.95507621343098    1.98942587491099    3.99788552290927
H         3.88332486738445    0.60271976472709    4.17923936601457
H         2.61918760392208    1.60482985368849    2.18484284214086
H         5.51037808603049    1.11389364017237    2.14285200251207
H         6.37431080263438   -0.06836283060728   -1.74988481137671
H         6.18896957142311    1.62595608759546   -2.28759520350717
H         3.99454485985946   -0.49423397097608   -2.10621468923666
H         3.88141544172606    1.13569155068659   -2.81998304226268
H         2.61631849556336    2.59081849196635   -2.00154294345593
H         4.02586508422051    3.12241232148038   -1.01811792597924
H         1.76559248197657    2.41686558670563    0.59533777653523
H         1.94618343301750    4.53984470130606    1.46163352444551
H         3.51096512899169    4.80500617444466    0.51408757621277
H         3.32834928940168    4.05355906660176    3.00850853460147
H         5.21934343835943    3.82841702371556    0.95075519173462
H         5.56381884594232    3.64578703789649    2.63982839226439
H         2.68153716674916   -0.08764322299415    0.78053769081836
H        -0.43961922443896    0.46032560464206   -1.78419333217648
H         1.10372482323145   -0.18256328201845   -2.61245401460285
H         1.11493931139629    1.42073142802892   -2.06980551065677
H         0.58874164906482   -0.83508651389950    1.17902185025381
