39
 energy: -52.268830601388 gnorm: 0.104393608431 xtb: 6.4.1 (79825abcba525fcdf90b791dcacef51065a7a4e7)
C         3.80901891992692    1.52645288690443    3.70627915497904
C         3.62498253825595    1.99562104356328    2.25710580291529
N         4.68584987975670    1.45524891820036    1.42485811668012
C         4.73483984181755    1.27374218012160    0.06744959042483
N         5.86529250834866    1.15137312719085   -0.56291454943006
C         5.63652754574229    0.90542386210913   -1.98557792989714
C         4.14287980556348    0.61521754708043   -2.02664197473881
C         3.44866227262935    1.14688323167724   -0.77197006532118
C         2.90284335038820    2.56901214987395   -1.09315078908718
N         2.37622669601107    3.34785866492909    0.04652228508576
C         3.28405871056200    4.10621681138559    0.90045666203337
C         3.64178088023103    3.55093443606537    2.30853002929862
N         4.96262826255595    4.08515474790769    2.71847635854331
N         2.53582661195053    0.24962708593480   -0.05079088973352
C         1.29260199872984   -0.21703627144551   -0.38294511740149
C         0.68409009463100    0.30895153750585   -1.65890848574562
N         0.48710451218606   -0.92319233579471    0.33766183589078
H         2.84207484749329    1.44179525667645    4.20935995882342
H         4.34193120358440    2.25945573168477    4.31892256465952
H         4.32086269213671    0.55925380983629    3.72524882216775
H         2.66519276967514    1.66521032422457    1.85266846314205
H         5.58426008679767    1.36666768188603    1.89602924083184
H         6.22437035998760    0.02694214078798   -2.27802777052643
H         5.89246224084647    1.70741959889489   -2.68152315495314
H         4.03696526078995   -0.47520450626355   -1.97848468166876
H         3.76626574178191    0.94128424688107   -3.00453692274180
H         2.12065254359780    2.53655423319926   -1.85992382124054
H         3.71735982880022    3.16114069026654   -1.52930830428582
H         1.70757109251665    2.70409932991535    0.46620994386955
H         2.81927954507656    5.07995480264520    1.10652537417933
H         4.23466565203998    4.34685042769028    0.40762519170425
H         2.87104038404518    4.01153053054877    2.94142070609132
H         5.74200106505461    3.55852820521104    2.31645623019912
H         5.01403425577161    4.17878248669601    3.73088762598362
H         3.02933306519571   -0.10661804718694    0.76151225382110
H         1.20657406734788   -0.11913165790338   -2.51032771350871
H         0.61380110529218    1.40047718144091   -1.64691328416164
H        -0.29997191812235   -0.17029674391121   -1.67765711441717
H         0.79347800607197   -1.26122249765339    1.25138814653863
