39
 energy: -52.263441061014 gnorm: 0.123381833686 xtb: 6.4.1 (79825abcba525fcdf90b791dcacef51065a7a4e7)
C         4.16789246128376    1.71946768187261    3.86761434878906
C         3.71277771389219    2.10406320266395    2.45373726491331
N         4.63279588408304    1.37945939649396    1.59432255456565
C         4.59290867345527    1.13725433788138    0.24612066809025
N         5.76637206700814    1.10995208033148   -0.31289151431297
C         5.54520365487446    0.74290897793926   -1.71044632305227
C         4.07853707031023    0.36687058386535   -1.86656740197110
C         3.36165167403722    0.99256801231503   -0.66932639574136
C         2.96883688343757    2.44266394625528   -1.07730228219922
N         2.55666240449178    3.42051125580963   -0.04933898638291
C         3.55119349378004    4.10751985059371    0.76760474805010
C         3.65494879847607    3.64572572669285    2.24914289923092
N         4.83207711907892    4.32688179238640    2.83946524472177
N         2.24863782400275    0.27436082341445   -0.03386158988218
C         1.09878066087461   -0.18501035698527   -0.61739837367604
C         0.79212585156744    0.00031439020768   -2.08254341186308
N         0.15940140752252   -0.76495138098458    0.05192367318661
H         3.71904891956929    2.41114705337854    4.58549816395076
H         5.25282332214472    1.77974413610067    3.99375869594578
H         3.81486254308481    0.71508277918385    4.12138352612939
H         2.67740283060450    1.86827396139684    2.19617273428379
H         5.62410215706607    1.42142517071680    1.82353972693702
H         6.27758220937467   -0.05957939193929   -1.86028052702879
H         5.85603580638920    1.64117457543205   -2.24853718749983
H         3.85516548535412   -0.69424848101903   -2.02993423355580
H         3.80991273518755    0.89069478871086   -2.79278840782915
H         2.19464296469966    2.33129810830290   -1.84479057764785
H         3.79792182169173    2.92036877655745   -1.61461311837099
H         1.72157384172136    3.12994804594768    0.45649125796817
H         3.35820856428891    5.18731476044544    0.82633658480421
H         4.46432986183108    3.85216297916615    0.21496038185184
H         2.80347827899338    3.93825587174194    2.87855878043817
H         5.08599205876131    5.04402223142007    2.15564183205720
H         5.66346310316757    3.75706972964303    2.98263249624237
H         2.41941502452178   -0.07317011402839    0.90440969054880
H         0.19643340823417   -0.83534219400309   -2.44029752727426
H         1.74353561139659    0.10972853212675   -2.61108922237266
H         0.17751673540670    0.88624747237302   -2.27171706619649
H         0.27281560333039   -0.61616881769966    1.05592858048662
