39
 energy: -52.270022281180 gnorm: 0.106692338531 xtb: 6.4.1 (79825abcba525fcdf90b791dcacef51065a7a4e7)
C         3.76594792051912    1.55840133250954    3.72089945167747
C         3.63389240115384    2.02482214420354    2.26518501368145
N         4.63704341687569    1.30456758794559    1.50033262156874
C         4.69508527147259    1.32336223708282    0.13132548912651
N         5.85731883026705    1.19267985736791   -0.43646993440966
C         5.67193324064770    0.95377233103867   -1.86662759094463
C         4.21446810540716    0.52933147348332   -1.97858682890618
C         3.47863087488266    1.17363849228056   -0.80290830130875
C         2.90262816053430    2.58845912363932   -1.10295735073172
N         2.40571117485397    3.44763287088408   -0.00857365292865
C         3.46984008885209    4.03960682179461    0.79496008361949
C         3.60737796677776    3.58082124345652    2.27468080143602
N         4.82619121741931    4.26283989891843    2.77210411754809
N         2.55818154714360    0.20614338817684   -0.19040265525252
C         1.29247410430438   -0.23589900374814   -0.46661221522287
C         0.39187060970898    0.39224965451569   -1.50071811566403
N         0.72018285484657   -1.23051690570242    0.12497456029960
H         3.15942767832460    2.18608942694032    4.37921465147194
H         4.76727760627811    1.71473687091761    4.13262591470006
H         3.41786857270396    0.52810676589612    3.84399219878996
H         2.61078720271344    1.76729206591084    1.98080636202029
H         5.60690565358706    1.42157375290472    1.78785057140956
H         6.25742377595268    0.16605891989887   -2.35604013082736
H         5.96949904049982    1.91289784565610   -2.29624640882244
H         4.23423549864517   -0.56322260969605   -1.88643430717524
H         3.80879368110538    0.73906756901363   -2.97652229843860
H         2.05277827640539    2.47286002145845   -1.78501957463289
H         3.71238878502434    3.08894352193966   -1.64893333270606
H         1.63811198645430    2.99119994277298    0.48145144108038
H         3.39492476791084    5.13542287512711    0.80994451942114
H         4.40810781575042    3.77999325018236    0.28830889942467
H         2.79152322479606    4.00303195813765    2.87705895150014
H         5.62870422555033    3.97404588054355    2.20734881484244
H         5.04302601790017    4.07822584436790    3.74949125880824
H         2.94369634065258   -0.23584966426611    0.63803930985225
H         0.53976658261750   -0.06459817988948   -2.47569311916130
H         0.54691959407946    1.47307625869106   -1.43524812169557
H        -0.63403647672109    0.05998694615456   -1.31223839199898
H         1.25958973739548   -1.61746178445609    0.90107942220646
