39
 energy: -52.264694367560 gnorm: 0.118797832595 xtb: 6.4.1 (79825abcba525fcdf90b791dcacef51065a7a4e7)
C         3.13197153299540    1.55436364837979    3.48546948475625
C         3.54524017165059    2.14140560818825    2.12948928146008
N         4.64023976128761    1.38630161109967    1.54564716975093
C         4.66284753532784    1.25226914834327    0.18203916819298
N         5.79456579155996    1.12497032553838   -0.44506939415193
C         5.45903805219429    0.76296737781794   -1.82099473473170
C         3.99637720931986    0.34165390149268   -1.82377781285506
C         3.42268364416570    1.24689265639105   -0.73280281590471
C         3.00089982514964    2.64055367850063   -1.28355984582533
N         2.74218746400063    3.68032280206855   -0.26634316866342
C         3.80867069216146    4.07458254354821    0.64779179547948
C         3.77531156881846    3.68039529384315    2.15194532739358
N         5.10636719128747    4.02920113473529    2.70395126354192
N         2.44466843851004    0.52050918920689    0.08834895115617
C         1.38805881580133   -0.26583757553802   -0.28440219722335
C         0.59372949974549    0.13941734955687   -1.50088967864536
N         0.89268658360986   -1.14064880352343    0.52557843998264
H         2.41946790128955    2.22936261606726    3.96708449184559
H         3.92440610991752    1.34557283386792    4.21008969675498
H         2.61868742289746    0.60370195150952    3.31054176073514
H         2.70816608639100    1.88515699041818    1.47559263214333
H         5.54847247574666    1.50211335283014    1.99139455478721
H         6.20724834956226    0.04093683276296   -2.16980623004318
H         5.67538892782748    1.62256193951653   -2.45921803014577
H         3.86808038552027   -0.72579276252755   -1.60778059277108
H         3.50136093493893    0.41769070138883   -2.80030915284059
H         2.14902298583732    2.62778666279858   -1.97273303549765
H         3.92902051259530    3.01087805899848   -1.73714392387931
H         1.89781385225351    3.49430125531253    0.27225994012835
H         3.89557861077846    5.16929112769777    0.67443360707102
H         4.79715838476757    3.75151773490093    0.29713218797263
H         2.98028790309386    4.21349180658726    2.69091263317082
H         5.36228288607687    3.36743353017975    3.44080162765973
H         5.05774139253056    4.91544379257545    3.20254407011963
H         2.85463263437810    0.05945797312701    0.89436182007861
H        -0.36262948956129   -0.36902854473236   -1.41133702598060
H         1.04832129759316   -0.31602913709954   -2.38543897143767
H         0.39150578676359    1.20535425454206   -1.64680931577200
H         1.54724145439800   -1.42033565853466    1.25794314824156
