39
 energy: -52.264964773447 gnorm: 0.116155635322 xtb: 6.4.1 (79825abcba525fcdf90b791dcacef51065a7a4e7)
C         3.90683590105985    1.41166551518555    3.72219008290658
C         3.70919882441423    1.87553383559725    2.27310164013979
N         4.89131781775184    1.52653305405275    1.50442037176480
C         4.84687390072747    1.32089162113454    0.15030112717721
N         5.94798315939415    1.18001544305428   -0.52643268581639
C         5.64065808854572    0.68179299673605   -1.86588079250641
C         4.16429823845975    0.31137407588497   -1.87227941588625
C         3.57948065900348    1.09614860088477   -0.69715163706426
C         3.16346664431998    2.54209303409751   -1.09678025026444
N         2.28046510390230    3.26747093042541   -0.16034184113678
C         3.06775090061646    4.04126203258701    0.79354409176339
C         3.41620523094104    3.40027898401091    2.16711410433479
N         4.49868767993399    4.31189947468215    2.60900206137905
N         2.53377977481755    0.41353934852148    0.07679356431875
C         1.31389093895298   -0.00463941236354   -0.38223399529059
C         0.64083036884124    0.69451620684782   -1.53687822610806
N         0.64230238735580   -0.92639648869482    0.22281945256527
H         2.95432372730764    1.52549642351106    4.24659558596659
H         4.62573070467666    2.14937028602480    4.09043260394982
H         4.18314831921542    0.35267387483916    3.72466057480813
H         2.80202634750137    1.43005356103553    1.85774321691681
H         5.77693609945520    1.70868842884682    1.97291735588751
H         6.31757580248137   -0.12590892905893   -2.16955203388937
H         5.86020139097240    1.41677094911736   -2.64347170767041
H         4.05602750092695   -0.77642612376602   -1.78553020514589
H         3.68514187499884    0.54712556508920   -2.83106332548916
H         2.58194970187109    2.50103928063426   -2.02466466752180
H         4.06447695185411    3.08732410416659   -1.40530930140827
H         1.51852742131070    2.67424233034898    0.16399582328334
H         2.53902586086043    4.95409586730611    1.09986725885239
H         4.02770758337483    4.25391579841093    0.30599666030298
H         2.50689711584366    3.60205451238933    2.74951059480471
H         5.38879679733447    4.12078461832042    2.14257035700172
H         4.65031995337322    4.24579826300218    3.61350372237656
H         2.84669572773494   -0.15979693600864    0.85375219429268
H        -0.12928162515171    1.34667672213262   -1.13342612308434
H         0.23270678949840   -0.06485758577378   -2.21015324097974
H         1.37038480649975    1.13083625883785   -2.22664890918645
H         1.05718266229099   -1.29902896953832    1.07841531006142
