39
 energy: -52.265183458692 gnorm: 0.112435076851 xtb: 6.4.1 (79825abcba525fcdf90b791dcacef51065a7a4e7)
C         3.82893723765802    1.76974594269147    3.71054611659426
C         3.69900804063134    2.16366436227224    2.23337373799434
N         4.86466965226255    1.66625671585124    1.52351713810217
C         4.81852274646132    1.19781255346585    0.23653107971286
N         5.82054213071785    0.62867607829875   -0.36538018215987
C         5.44061740747098    0.14393594426729   -1.69107989980295
C         3.98452726460963    0.53607925762810   -1.89823840873465
C         3.51722270565306    1.17285256749394   -0.58867582254342
C         3.06246103449175    2.63648777207265   -0.86160400861864
N         2.31793909178431    3.33204989271072    0.20828482173917
C         2.96204059724030    4.32539619884986    1.06084938102223
C         3.68716662711135    3.71862247201998    2.29575510869816
N         5.01061338782826    4.37880878046322    2.39933043489018
N         2.41654156596640    0.37499451431652   -0.03157577200559
C         1.38192003403131   -0.20355091041940   -0.71608437705158
C         0.61611186759753    0.45743226843902   -1.83486563390189
N         0.89078206821303   -1.33563535786052   -0.33670952667387
H         3.14110160442346    2.31161718782451    4.36514197983334
H         4.84550416359904    1.89109029782963    4.09588733126596
H         3.56605315684100    0.72493342125153    3.90309923712576
H         2.82326467335086    1.72609390482589    1.74804617110709
H         5.80218162209642    1.78067500854325    1.90426575378717
H         5.51967316558982   -0.94197537526777   -1.55931111812237
H         6.09029356910049    0.60411958301973   -2.43887090557299
H         3.38838254647769   -0.36349386651996   -2.09301246262951
H         3.87292414597717    1.25483083048379   -2.72005170661217
H         2.44655125589184    2.60125770591784   -1.76726997582090
H         3.86947924925833    3.32941118759515   -1.13153993437715
H         1.62971135365227    2.77923771976755    0.71662073673355
H         2.28160877230837    5.13137128480737    1.36755175855480
H         3.74210968548512    4.82542039039994    0.47270911016201
H         3.11999059576658    4.05960582289896    3.17255724540008
H         5.51742905528223    4.01639374811322    1.58805311514143
H         5.60155026292659    4.04998623424356    3.16028683681503
H         2.69867802234922   -0.22916454983722    0.73372577136467
H        -0.01513256978234   -0.27641959381905   -2.32898234589446
H         1.15039672584094    0.97323039617937   -2.63798743676258
H        -0.03895991526983    1.09214106200519   -1.22952756313917
H         1.37396881668932   -1.81467773557969    0.42491626641605
