39
 energy: -52.269638022338 gnorm: 0.109873569532 xtb: 6.4.1 (79825abcba525fcdf90b791dcacef51065a7a4e7)
C         3.91829297540414    1.72785062675868    3.91226312114126
C         3.74506499429396    2.08906506645704    2.43117982277484
N         4.73050908191113    1.48232592896312    1.55320185271055
C         4.70256705373382    1.17587965487569    0.21783204588256
N         5.82215276611218    0.95365257922376   -0.40458206336707
C         5.50690981287935    0.67018789427539   -1.80353352787956
C         4.01975829324357    0.36260760702023   -1.90680149909123
C         3.45527987878569    1.08494667347487   -0.68271065491755
C         2.93240786205035    2.48364586858304   -1.12290542368509
N         2.56070931934268    3.39691798294597   -0.02265274506113
C         3.61832184347681    4.07408412899612    0.71989134918990
C         3.70063724139881    3.62855474299802    2.20774282571321
N         4.82167850292967    4.20656018670790    2.98701257425756
N         2.39220053597418    0.28348606309014   -0.06145373594190
C         1.18681749262138   -0.09739474851721   -0.58651573882689
C         0.74273006299839    0.11282123330869   -2.01256904403135
N         0.32689798912021   -0.74232798194056    0.12857625667294
H         3.35606313466514    2.51287447394563    4.42497475132727
H         4.93456116443551    1.74921073848322    4.31644541737023
H         3.32567417367495    0.82269055928992    4.07750887042370
H         2.76141454847733    1.80726131162085    2.04783187657599
H         5.70614562361433    1.49760958134624    1.84455989523729
H         6.13459716044022   -0.18408272426857   -2.08468567157542
H         5.91822682803144    1.45911335034588   -2.43713784217021
H         3.87862681318519   -0.70809432276393   -1.71644247850657
H         3.58871892190741    0.65770685881641   -2.87197385407996
H         2.07175062711706    2.31276698335779   -1.77932479594468
H         3.55825700314998    3.03261731303777   -1.83790883554713
H         1.93914247943786    2.93919711436506    0.64203545254240
H         3.45720437545596    5.15769722478370    0.80034930252869
H         4.56756463287638    3.89922224666936    0.19758645464866
H         2.78152057080560    3.90451819581006    2.74235390550153
H         4.64092529278843    5.21200171427900    2.93416110238066
H         5.66336083845336    3.90664477721199    2.49915306652649
H         2.49308204467600    0.12166529232929    0.93550793648879
H         0.02672600550546   -0.67535209409132   -2.23000966313493
H         1.61377180309093   -0.02451678467128   -2.65982263998000
H         0.09065680612837    0.97193269163420   -2.20001619544743
H         0.66199669723428   -0.90170549526223    1.08006590534592
