39
 energy: -52.269383546237 gnorm: 0.115452172145 xtb: 6.4.1 (79825abcba525fcdf90b791dcacef51065a7a4e7)
C         3.98201433025459    1.74169682974695    3.95649864651369
C         3.77458240832699    2.03071550634834    2.46400685281736
N         4.74300847638244    1.26648244957505    1.69708015542368
C         4.68356671220021    1.23136500256830    0.32845454873166
N         5.81149591669932    1.22707659188817   -0.31808522870012
C         5.56292481728923    0.97087797296850   -1.73560779234890
C         4.10247455207961    0.56092378302546   -1.86175102897894
C         3.45261224797551    1.10952181853361   -0.59071714072956
C         2.89687436966860    2.54573766707533   -0.81867643567838
N         2.10560975523745    3.18786433545775    0.25106902647040
C         2.73989483537953    4.03427930269191    1.25592429000089
C         3.90078033221808    3.55429182107828    2.17294727117019
N         5.17169617107320    4.10966964079208    1.64910231048465
N         2.40327158948149    0.26526230461239   -0.00373590323941
C         1.30053389491428   -0.17900764425136   -0.68219175697108
C         0.92704835086071    0.29438223532007   -2.06474120510633
N         0.50805163943325   -1.05666682244753   -0.16407669846350
H         3.12452760583886    2.11069832317565    4.52552629463219
H         4.84271923125066    2.16715143478461    4.48070859415962
H         4.10104326410970    0.66494409894099    4.11223438235627
H         2.78496215027567    1.74181185350723    2.10189688354185
H         5.67687921699952    1.49103056950054    2.03538970138046
H         6.27718778885187    0.23142922210013   -2.11752423581585
H         5.74081623670840    1.87616421931619   -2.32028799689275
H         3.77096502171966   -0.46600523057110   -2.05688044142637
H         3.64382049873059    1.15006911691745   -2.66610196063554
H         2.32696463145511    2.75740943898815   -1.73038625580024
H         3.79817864285379    3.17138009044567   -0.84123399323347
H         1.51301702458719    2.47691697142067    0.67657087840559
H         1.89513726779124    4.33860077700414    1.88871394871137
H         3.18194193556754    4.81170583427858    0.61980849512636
H         3.74439898660512    4.03104009883995    3.15018636152343
H         5.44767330319164    3.52521930625535    0.85623908556554
H         5.88971413705630    4.11087585689880    2.37079064261435
H         2.57618207148107   -0.30531363118198    0.81775095856332
H         1.61792415655040    0.15278129626123   -2.89166273009399
H         0.75738466640061    1.37498665126498   -2.06932202787804
H         0.03185579775391   -0.24261933108526   -2.39438961143042
H         0.73208953639592   -1.41425268769255    0.76595784318592
