39
 energy: -52.267671296201 gnorm: 0.112840809345 xtb: 6.4.1 (79825abcba525fcdf90b791dcacef51065a7a4e7)
C         3.72882394020825    1.59720694713877    3.86783969713224
C         3.62962325531246    2.07849430202663    2.41435654540499
N         4.63692985408798    1.40593438994711    1.61243736442620
C         4.56654252236819    1.33189080585873    0.24588483726160
N         5.71720050796052    1.35826449743257   -0.35872000722244
C         5.51269872256281    1.10772410463666   -1.78427396297794
C         4.07765008259841    0.62668937528889   -1.94592336005316
C         3.36161316634258    1.13838397246224   -0.69521645751371
C         2.79149182973302    2.54654469867622   -1.03517388957033
N         2.48751579966679    3.51090756680846    0.04203758057049
C         3.65898972782836    4.06381500699777    0.71316512365161
C         3.81970993457950    3.60687881001485    2.19112067636443
N         5.07877140336382    4.21522425808645    2.68383274686808
N         2.39717738053518    0.23863280170605   -0.04810874571231
C         1.24390836760033   -0.27734761680229   -0.57483767211467
C         0.84824444742052   -0.25279968191050   -2.03013141558117
N         0.41151086919961   -0.88765198182451    0.20066214774975
H         3.49291760621712    2.33516838573422    4.63920158827748
H         4.76994810090431    1.30862027895768    4.03930059702855
H         3.00678993935732    0.78059965883051    3.96600991841434
H         2.65326217848581    1.72517939393378    2.07402606262816
H         5.56577549993958    1.70053028688105    1.90815479546653
H         6.22959290874007    0.35590488577226   -2.13590844368331
H         5.73204157089553    2.05346604125428   -2.28477410568925
H         3.96641096589019   -0.45342114724581   -2.09936513918203
H         3.60446914570650    1.01072958401230   -2.85863859511906
H         1.80313804200852    2.35117245582929   -1.46622301205653
H         3.41052590503214    2.99902724791642   -1.82024906768220
H         2.00111299226823    2.93275004861406    0.72527277324975
H         3.43336090200416    5.13124116946828    0.84100364562985
H         4.60077010680909    3.79331013524907    0.21887999304592
H         3.05997958044441    4.06852615633777    2.83643595488806
H         5.83656167237979    3.99018373962455    2.03461141351505
H         5.22813669045576    3.79770171937868    3.60021162449736
H         2.63326770453748   -0.31426934258153    0.76972753759627
H         1.61703459350098   -0.42761066355910   -2.77817035099356
H         0.33384329134046    0.68246759087094   -2.26925321637915
H         0.15419685554082   -1.07803492403864   -2.21905785828312
H         0.64362554152599   -0.95152024207160    1.19316832279087
