39
 energy: -52.269235617349 gnorm: 0.097451361224 xtb: 6.4.1 (79825abcba525fcdf90b791dcacef51065a7a4e7)
C         3.51698987423028    1.41600878097276    3.71975630842647
C         3.53848466276506    1.96150218424211    2.28585726387777
N         4.55764416095833    1.29895173157205    1.49060976751693
C         4.67862425812801    1.32855903987895    0.12591572269467
N         5.81186799634893    1.14855139085619   -0.48532255554017
C         5.55962122491070    1.01225639303059   -1.91870693525308
C         4.06371259393231    0.75563713467301   -2.03400418178493
C         3.41927071007581    1.30863514871659   -0.76211746540900
C         2.65450930886097    2.64719208885927   -0.97875380876032
N         2.43179959555979    3.68081218922763    0.05314325982550
C         3.60549434194455    4.09437789463942    0.81463785053085
C         3.83663246023641    3.48783416963520    2.22802178670292
N         5.13248653549762    4.06862949738500    2.65407828525184
N         2.47885065525251    0.40829957781541   -0.08135104447543
C         1.32048767937759   -0.24835747385527   -0.39869201252466
C         0.84341208060380   -0.12002935685033   -1.82381066715337
N         0.72496201155693   -0.99958683329901    0.46603950492469
H         2.58393044178457    1.66442549653684    4.23252065847182
H         4.34033896872870    1.85006333102968    4.29448540600615
H         3.64641840989316    0.32928957978677    3.70938417344654
H         2.53723512113686    1.91450841268051    1.85085364989490
H         5.46982888979455    1.37525205825775    1.93680148593273
H         6.17718220056610    0.21273424205312   -2.34555466939277
H         5.97758955633277    1.92502652818809   -2.34904707923301
H         3.88474088228527   -0.32126649887396   -1.93005727102993
H         3.58133710064646    1.14186676634456   -2.94096433986727
H         1.69287453476022    2.21957845837879   -1.28407660476323
H         3.10826827977188    3.06794163324996   -1.88504255525769
H         1.72490680099168    3.35432938259060    0.70993522005773
H         3.49106320545668    5.17212717853768    0.99355586732728
H         4.43045307841304    4.04760925236011    0.09235208379320
H         3.09106676404499    3.87935690102688    2.93341673224576
H         5.87309779692808    3.63365682799991    2.09849624754045
H         5.29937289689508    3.87353314323274    3.63920348485033
H         2.90652365447451    0.09192712108099    0.78311404503623
H         1.67009964697625   -0.20335380928965   -2.52438480421896
H         0.33778339061852    0.84287548769562   -1.94071467304085
H         0.06962035609731   -0.83091796092858   -2.13088104826092
H         1.05928997206057   -0.85226742199855    1.41974107641690
