39
 energy: -52.265717228301 gnorm: 0.115737960489 xtb: 6.4.1 (79825abcba525fcdf90b791dcacef51065a7a4e7)
C         4.02777961537748    1.40398153245859    3.72711984887649
C         3.77381222280206    1.96911985183819    2.32347787644508
N         4.83514888689024    1.53527835060228    1.43161253011702
C         4.76168235491399    1.36328061211491    0.07406987282407
N         5.85800944729661    1.04626907575696   -0.54868767965250
C         5.50900862691764    0.80747369921339   -1.94796275829834
C         4.04899175906537    0.38028527914493   -1.89551907233193
C         3.45404969363424    1.14340526482635   -0.71124722187953
C         3.06020000168274    2.59103755003658   -1.12690239663981
N         2.41065143609821    3.35177475909292   -0.03963643125518
C         3.12056187916162    4.14619105725861    0.95705803979854
C         3.55243236867218    3.50947704114726    2.30874491280982
N         4.75509894403991    4.23530510493708    2.78293038981163
N         2.39774364916066    0.46569749728034    0.05253721385069
C         1.26807240703950   -0.12671186468563   -0.44405375904254
C         0.75407490254415    0.22976255267204   -1.81655694117344
N         0.44108496812804   -0.92994661193961    0.13703374586102
H         3.34688547858832    1.80704211832457    4.48154902687081
H         5.06363211047536    1.62299301395828    4.00219110881843
H         3.89640994497760    0.31885589713944    3.78245801366006
H         2.82565191165683    1.65817790252564    1.87823150472596
H         5.80315838899568    1.61139036166351    1.73845829879449
H         6.24913526122785    0.10833013027333   -2.35567228161984
H         5.72940576075511    1.70121565537287   -2.53591675984365
H         4.00951861541137   -0.69620729078459   -1.69018304018077
H         3.40803098533629    0.62312066370570   -2.75262842772513
H         2.39549000532011    2.48927283270347   -1.99213151467344
H         4.01018655561009    3.11255175813570   -1.29963098396020
H         1.65964555326722    2.79941381904150    0.37091403250883
H         2.48009304324422    4.96888994425791    1.30291331348367
H         4.03227228357733    4.56687982880880    0.51406137215813
H         2.78499028541905    3.72455443832771    3.06473078874659
H         5.44375137874539    4.39048190655616    2.04262258370638
H         5.24905281990906    3.80483788762521    3.56209201998610
H         2.70213153227091    0.20071355840500    0.98389489979446
H         1.26282225276579   -0.30270876957287   -2.61581274949449
H         0.87906415559261    1.30034236370988   -2.00296835352530
H        -0.33562970856027    0.13242554560076   -1.77811431042096
H         0.71655069785721   -1.22041736637418    1.07659228851322
