39
 energy: -52.264086991828 gnorm: 0.127850751418 xtb: 6.4.1 (79825abcba525fcdf90b791dcacef51065a7a4e7)
C         3.55279230759308    1.54795782627923    3.72008794198837
C         3.52202704598068    1.95640728836642    2.24146896675261
N         4.64899910805351    1.46668347578186    1.46675463150052
C         4.79979269928390    1.40563200798635    0.10607957831704
N         5.95309823346345    1.21942443951677   -0.46441970195887
C         5.61477506130374    0.87613672039269   -1.84445104772821
C         4.15358073386368    0.46434103778726   -1.95501771374160
C         3.53747537159188    1.16931545263863   -0.74578936326322
C         2.98712908976831    2.57015290232882   -1.14365794008424
N         2.41732839438989    3.38302436876654   -0.04942356739413
C         3.51014642206589    4.00848015720720    0.68747791540531
C         3.54665674940470    3.51035330089332    2.16040388527790
N         4.81590810870052    4.11622616310235    2.62944994563443
N         2.53989761091307    0.41971146701337    0.02969073494421
C         1.32933689619469   -0.10888285938080   -0.32925122706416
C         0.53715061936501    0.44618709691285   -1.48656304488542
N         0.81201290247361   -1.10312866446016    0.31153588862477
H         2.55600500678164    1.51060019305107    4.16758937255814
H         4.16049371625482    2.15387008503653    4.39846095590137
H         3.75753335679354    0.47284674693196    3.71415343059540
H         2.58747196007838    1.57200039999111    1.82580644547789
H         5.49915296467077    1.46813824297147    2.02731333052100
H         6.23428364790152    0.02499854805632   -2.15200452698932
H         5.84113138636801    1.75964308733646   -2.44546585735971
H         4.03355393439338   -0.62534797840373   -1.92802386552399
H         3.76303804627879    0.76097084611230   -2.93681368700482
H         2.17872534251129    2.27633654994121   -1.82260727392973
H         3.68363343102591    3.17643043625494   -1.73661318339379
H         1.84610865778096    2.77020044614915    0.53007533936157
H         3.39740043657942    5.09520512873984    0.57360587221013
H         4.49881056792380    3.85894302413876    0.23512538929124
H         2.76274168673229    4.05106866298017    2.70798433836729
H         5.63296819798458    3.83641638123631    2.08127391426660
H         5.08077134111058    3.74886912137762    3.54119638884831
H         2.97225893371926   -0.17917287991469    0.72589245360728
H        -0.36930954925637   -0.15154443551444   -1.53353535304812
H         0.99036981822512    0.53223424123377   -2.47838000949884
H         0.13169225045652    1.38840325724914   -1.10414876300694
H         1.37937139970143   -1.35757131675788    1.12171374195454
