39
 energy: -52.266572834553 gnorm: 0.117901695293 xtb: 6.4.1 (79825abcba525fcdf90b791dcacef51065a7a4e7)
C         3.85294089743596    1.62709409309004    3.82698193774116
C         3.65123686830832    2.00288135124974    2.35314647287966
N         4.67067564008087    1.34712678343754    1.55264144389126
C         4.67644829894254    1.33181101928075    0.18237332741531
N         5.77931252413475    1.09520544920066   -0.46412854073175
C         5.46457486344300    0.80114494742121   -1.86100511718647
C         3.95741042528511    0.60949740543225   -1.95382815807813
C         3.40631148718090    1.26738039580571   -0.68801303720805
C         2.74456475430584    2.60549819249317   -1.12966674922208
N         2.47784716134267    3.58071332374840   -0.05235580266284
C         3.60225565009632    4.03545696253991    0.75843624261117
C         3.66640923906109    3.55465847359275    2.23616808730909
N         4.85653793483155    4.23254177139222    2.80375337653624
N         2.48009212911585    0.31443559340058   -0.06155406355115
C         1.29228324218828   -0.20975993146592   -0.49518715956163
C         0.86634387721406   -0.02084706209976   -1.92973238532756
N         0.59640816655737   -0.97862702283908    0.27381105168845
H         3.19916211695887    2.22185478140051    4.47046548818827
H         4.87957153950259    1.84717455832386    4.13392612593583
H         3.79284099824162    0.53615563512872    3.89069405870057
H         2.68491447982284    1.60505390976808    2.03394188029292
H         5.63411628810469    1.43382340063667    1.87084826270022
H         6.11030865665212   -0.02700224093943   -2.17725868965986
H         5.86372512362916    1.65963290284989   -2.40572246586319
H         3.78673761393329   -0.47042567056931   -2.03864680777958
H         3.54698144212898    1.07962541324641   -2.85658166159763
H         1.75693104483195    2.44239131125772   -1.57552844564346
H         3.31687546421559    3.10156217689008   -1.92381260570972
H         1.87479216124228    3.06367919595659    0.58534672129294
H         3.26483168977262    5.07846550155538    0.82863542063599
H         4.57873889667249    4.01641645209263    0.25787767601718
H         2.71399300852368    3.89263718116391    2.66676535070062
H         5.71574349732439    3.68883986673492    2.69180828285033
H         4.75235011364762    4.45615482208513    3.79144128497846
H         2.86392721041363   -0.13811214384384    0.76195476259962
H         1.73764846192860   -0.18841429705650   -2.55735406056026
H         0.58336963064914    1.03113668028262   -2.02856780939355
H         0.07647731680496   -0.68220408608511   -2.30003788587968
H         0.75702336371616   -1.09370493950361    1.27580142544516
