39
 energy: -52.263036943575 gnorm: 0.113039916814 xtb: 6.4.1 (79825abcba525fcdf90b791dcacef51065a7a4e7)
C         3.64148899992627    1.48959897861333    3.73046715641853
C         3.62200485631122    2.08883822600648    2.31815548781850
N         4.72168472858611    1.52670041235050    1.55344441059432
C         4.66527123480724    1.36966327587458    0.19327549559718
N         5.72862691689791    1.03063891894909   -0.47350299283996
C         5.37890807032188    0.76602089953772   -1.86794538254854
C         3.86391656678305    0.63144982168024   -1.92778613215560
C         3.38129279243006    1.33445248923356   -0.65827065315169
C         2.78652667785426    2.71605903587717   -1.05944721132591
N         2.45962768209961    3.63397311731709    0.05111683653013
C         3.58116932012531    4.11546475507761    0.85035405539906
C         3.69410155039512    3.64339025747055    2.32797588209503
N         4.94102877214886    4.29183913276695    2.79996285854782
N         2.52282237285740    0.33577431919270   -0.00703535216696
C         1.48633500678198   -0.36614343978715   -0.56085300469469
C         0.90021870713683   -0.07663963353582   -1.92014975896076
N         0.78784709528603   -1.15525268025796    0.18492057806165
H         2.73611192257346    1.69983726051552    4.30608010092495
H         4.47029087768949    1.94661462891757    4.27896033235992
H         3.65241832434947    0.39649724397001    3.67729669350587
H         2.67625167219435    1.94772715488783    1.78940621937230
H         5.65317709031184    1.63422329497184    1.95062267302484
H         5.92377156461398   -0.11982676218475   -2.21610326861886
H         5.78856857451813    1.54365599745962   -2.51640618801355
H         3.66109797390464   -0.44421135467322   -1.86164291049387
H         3.41662083331458    0.93422121948452   -2.88313538117876
H         1.86844577567608    2.49787067529721   -1.61652724096788
H         3.56141320464966    3.20665482760928   -1.66206924803621
H         1.70220413186419    3.23076903166672    0.60011607160503
H         3.65739993658143    5.18740883809787    0.62281408521635
H         4.51191387808345    3.77991283588626    0.37542202329105
H         2.95407474252360    4.12050859664186    2.98483104079172
H         5.64763755077868    3.99544931411987    2.12229422560940
H         5.27124452575214    3.94444276479943    3.69810462039598
H         2.62872616987962   -0.05801233611484    0.92248714441584
H         1.23217493154906   -0.81118047560503   -2.64913140545576
H         1.09303576382367    0.90391931467409   -2.36494003397892
H        -0.18577764622432   -0.21156147367817   -1.89157553065030
H         1.05619961614047   -1.34557648563927    1.15176526929610
