39
 energy: -52.268766509553 gnorm: 0.109879574506 xtb: 6.4.1 (79825abcba525fcdf90b791dcacef51065a7a4e7)
C         3.68064052680108    1.52242686491612    3.74096634307361
C         3.61994858893919    1.96889443878826    2.27431207041063
N         4.72494535745776    1.34646017409366    1.56604975437313
C         4.73922421157967    1.36008122722198    0.19582597460675
N         5.81415254259616    1.47253560063940   -0.52676621668682
C         5.54685935750136    1.10408306314394   -1.91586399102602
C         4.13077720253114    0.55097245966597   -1.99116030495210
C         3.51587181631222    1.11043812320053   -0.70753359875363
C         2.90902754850429    2.49763118594603   -1.06941957798386
N         2.32902720089006    3.34077274904442   -0.00382415110964
C         3.27945030136433    4.08633256324275    0.81428737226332
C         3.62920662687477    3.52422976282346    2.22165556592396
N         4.89888750748277    4.19007210552172    2.59934536024921
N         2.51361911990192    0.25781121518078   -0.05411655921585
C         1.31110767736609   -0.28447115871578   -0.41963622454994
C         0.68763262362827    0.19531973764992   -1.70653636688550
N         0.76011010751649   -1.14234679280379    0.37232845287527
H         3.11094373768050    2.25488677665548    4.31905465643066
H         4.68064097589691    1.49262190690202    4.18338174329707
H         3.11641524181932    0.59318970278164    3.86740239915366
H         2.66191254612251    1.64337430157238    1.86183081129061
H         5.67285109558352    1.53182561129950    1.88870147910685
H         6.29120569473528    0.37914349235438   -2.26690155257363
H         5.59943394453693    1.96088934847485   -2.59125898128728
H         4.16996704032672   -0.54493428436269   -1.98802515203898
H         3.47685704027850    0.97781957025269   -2.76228036910828
H         2.09168084648069    2.29704248504631   -1.77122112114321
H         3.68076959114506    3.16404455028061   -1.47512159588355
H         1.67171528277792    2.84400315734518    0.59519600051740
H         2.96752531270149    5.13379206385539    0.92465519640537
H         4.23075027183619    4.18345123256615    0.27573627282664
H         2.97858863090577    4.04955829021359    2.93402235893851
H         5.75072717317228    3.91240626293663    2.10573769418280
H         5.01565381093417    3.98460780729983    3.58956521390588
H         2.95007894134796   -0.32676089569795    0.65162694315539
H         1.56889671553495    0.05788867821970   -2.32754017933707
H         0.26832148148508    1.20372373201744   -1.76827940736076
H        -0.09774378946736   -0.48928793483267   -2.04254929789044
H         1.39747918573240   -1.40046697055456    1.12741753174549
