39
 energy: -52.262294617446 gnorm: 0.102490393244 xtb: 6.4.1 (79825abcba525fcdf90b791dcacef51065a7a4e7)
C         3.73525589179999    1.69274026608766    3.78406279714781
C         3.65674578573998    2.10391460985016    2.30796545426374
N         4.77690502700050    1.52348663812049    1.58794851200963
C         4.82119079134217    1.19326582705341    0.25870226222698
N         5.94620634549365    0.99181253981613   -0.36098551563091
C         5.73265485052177    0.46748976620399   -1.70867870329109
C         4.22377951675265    0.36594367600774   -1.88151722437394
C         3.60450860917644    1.08230999180910   -0.68062970612039
C         3.20506284919039    2.52347858181866   -1.11306721904064
N         2.37280486788934    3.27537883497565   -0.15141531792875
C         3.07212045248725    4.18454304591695    0.75016557934180
C         3.56750769094556    3.64653410744835    2.12279521884297
N         4.83975117346755    4.33516359993219    2.44725026933248
N         2.54724449601804    0.28662877453388   -0.04225603238273
C         1.30637316153999   -0.05186132045556   -0.51062699710831
C         0.28753351585631    0.70135259276045   -1.32895883752386
N         0.72151112200804   -1.14334157738218   -0.14543631976408
H         3.13682385553999    2.30322035381884    4.46555469414511
H         4.77587424538441    1.70139286204690    4.12119658777034
H         3.36238561778985    0.67142289220501    3.90934858678396
H         2.79256451994735    1.55366019812343    1.92803385035529
H         5.72164734801351    1.70186091701984    1.92355888638232
H         6.20034764734238   -0.52197742233239   -1.77963185025770
H         6.26441317220304    1.12568380575489   -2.39936906782080
H         3.88893662107796   -0.67606097630110   -1.94980926428640
H         3.89342959346216    0.76717165090334   -2.84812015249974
H         2.60524563849800    2.45457676492538   -2.02755544499165
H         4.15213987048821    3.06836715338625   -1.21518599413940
H         1.60996013363830    2.72816947781298    0.24392498574348
H         2.50487622198903    5.08261959212444    1.03006227456724
H         3.84852421692753    4.73107097959316    0.19976085389960
H         2.78761418593885    3.93681321948717    2.83990360768571
H         5.63880534179919    3.88763071333340    1.99161399401780
H         4.92716178535397    4.27566078932721    3.45977390148174
H         2.89331321483464   -0.60163052365179    0.30635190001283
H         0.50569148313513    0.74915332014280   -2.39257606753653
H         0.06600566580848    1.69532449402405   -0.92963700356801
H        -0.61936199286298    0.09121774711160   -1.26825895264372
H         1.23571654788664   -1.95763695512073    0.19447646201702
