39
 energy: -52.265676340681 gnorm: 0.114071146033 xtb: 6.4.1 (79825abcba525fcdf90b791dcacef51065a7a4e7)
C         3.64447362857607    1.51879173184302    3.85557804127959
C         3.67705012072642    2.11766498138147    2.44335244854084
N         4.63282876925593    1.38678394756144    1.62948647651102
C         4.75533904768501    1.31172874362265    0.26667301719683
N         5.90058820446800    1.13290094014991   -0.32212349037105
C         5.62291690270138    0.82243001545402   -1.72330227634215
C         4.12436452599872    0.67994955581587   -1.94897819116947
C         3.53181436873999    1.27204632480819   -0.66948076100807
C         2.91906392793816    2.69325390686142   -0.83750419748199
N         2.08659915387550    3.20577978799132    0.27024185134733
C         2.76475941468698    4.12767078178233    1.17505432117310
C         3.83129107111010    3.64701151763798    2.19996951250773
N         5.18363597720994    3.99128298934646    1.69924450087427
N         2.56053022391843    0.34850817491397   -0.06771559661877
C         1.46459317426806   -0.27415572052561   -0.60149476385587
C         0.80546385527496    0.33351228945081   -1.81447479027715
N         0.68711218679984   -1.15097267614390   -0.05976392294460
H         2.70322945437454    1.78664472827045    4.34297133225139
H         4.49134355949019    1.79253466834209    4.49157861975283
H         3.66985445214344    0.43130280638583    3.73498950144264
H         2.68768714784985    2.01202407938414    1.99175738083034
H         5.58054075928258    1.35724260362050    2.00091486747335
H         6.13685219459019   -0.08515648891803   -2.06237965372209
H         6.09322971630958    1.66968692460969   -2.22728746875159
H         3.83304203331197   -0.36352519184009   -2.11882786202488
H         3.83236716461881    1.22651528321527   -2.85475940799942
H         2.28696815265349    2.62306180195238   -1.72988575916705
H         3.77844180264287    3.30725769027025   -1.13542313238510
H         1.52285510029239    2.48552308456807    0.71866915013046
H         2.07536126021774    4.62169053315933    1.87314050766214
H         3.25375030705955    4.94099815330194    0.62384887660872
H         3.73431882972022    4.19587863179221    3.14658535301986
H         5.45430424873967    3.33189850493223    0.96553580427770
H         5.73953915808952    3.85923154995237    2.54181163505152
H         3.04779850933237   -0.17768362074410    0.65060704542144
H         1.40519180707850    0.30791622142818   -2.72047183316621
H         0.63559424411454    1.40297420931640   -1.65985210503997
H        -0.14569691003721   -0.19566849247042   -1.93139084633589
H         1.12674977650558   -1.54157423431270    0.77520559481946
