39
 energy: -52.262227352953 gnorm: 0.113883728776 xtb: 6.4.1 (79825abcba525fcdf90b791dcacef51065a7a4e7)
C         3.62958613718008    1.51817410820504    3.71670305567090
C         3.59085522745423    2.11494729819278    2.30374402601815
N         4.71222262654311    1.57910890109904    1.55175325805681
C         4.69354413464812    1.19246518820099    0.23719617213298
N         5.81434772380601    0.88522571122944   -0.34560702546115
C         5.54027217303481    0.63230161987364   -1.75900984659682
C         4.03515453415705    0.51547066375308   -1.95358875696755
C         3.47130464136444    1.18857534819905   -0.70146602792803
C         3.01428304761504    2.64396180478492   -1.01212259140734
N         2.34538691412191    3.34094918104850    0.10571829602016
C         3.05029676220208    4.25715567053781    0.99573948822498
C         3.75899705158146    3.66098553127148    2.24525912650504
N         5.16540563409546    4.12662607382420    2.18799728875591
N         2.44530263208740    0.42083447119725    0.01709555888095
C         1.35943632124920   -0.21996460831985   -0.51580167818795
C         0.65366672771105    0.44348787916521   -1.67198181428659
N         0.95848958863511   -1.35614185132236   -0.05201296700240
H         2.65730475772214    1.69959105877767    4.18253012351501
H         4.42653264366335    2.02754888653054    4.26627945645735
H         3.83532726052293    0.44366071114946    3.68654518481943
H         2.64167659818293    1.85860721711098    1.82699787923866
H         5.51603475335327    1.30647471594120    2.11437783264199
H         5.88414862249758   -0.37715266535854   -2.01507087934837
H         5.96171421923739    1.51225145902907   -2.25004382723912
H         3.80895046623764   -0.54969810451505   -2.08322080028541
H         3.71569020749436    1.00985123837416   -2.87985360101698
H         2.34228699022301    2.77447947787291   -1.86781136261646
H         3.90186265103693    3.24722828891037   -1.24137936309115
H         1.55999428187657    2.83083275560267    0.50647228837489
H         2.30848225967244    4.94350831732025    1.42618222092164
H         3.65229878118448    4.95835631068786    0.40383394084343
H         3.21186591907007    4.07043491967855    3.10533993816769
H         5.88194022519181    3.67907253667240    1.61123765788291
H         5.49961017477505    4.17306768792961    3.14848456364643
H         2.80031112624267   -0.04348508227593    0.84695815814895
H         1.33741208653125    1.02026062654693   -2.28922156128713
H        -0.15310005196456    1.04344059428279   -1.24105633957002
H         0.32032379173617   -0.36978266941834   -2.32457814456820
H         1.49961197140788   -1.65018806142641    0.76269451360533
