39
 energy: -52.262480843555 gnorm: 0.110948531155 xtb: 6.4.1 (79825abcba525fcdf90b791dcacef51065a7a4e7)
C         3.53709903654653    1.56518549910918    3.78066566240884
C         3.51704440176462    2.00005268759439    2.30941453437732
N         4.59842468464440    1.41725231554429    1.53414802928615
C         4.74865454855737    1.28779997903488    0.17820715062381
N         5.91602924258222    1.32311338288775   -0.39297201319445
C         5.72543512092125    1.16284500907301   -1.83338288244810
C         4.33237745085454    0.58604202014762   -2.04213675904164
C         3.59112570767703    1.15197535831002   -0.83008342980417
C         2.74541890031226    2.42339303456905   -1.13307363769731
N         2.31638607502035    3.27488454370515   -0.00450164396013
C         3.45360698113228    3.88249776137989    0.67814376621482
C         3.64291535765277    3.54619501399570    2.18480798812561
N         4.97287280661042    4.04543761711905    2.60913704696702
N         2.64285622372313    0.21153917460151   -0.21787292553054
C         1.32585926254515   -0.11692222786393   -0.39490586031394
C         0.56226161211923    0.10542912587760   -1.67651067953043
N         0.59704709369338   -0.53839679154762    0.58384282297443
H         3.09281189289636    2.36605780663006    4.37770044245248
H         4.54161421374431    1.46232699883773    4.20136746245503
H         3.04274681524158    0.59650990128086    3.90355347624313
H         2.57389804376888    1.61168701313755    1.91751626975009
H         5.54810335503592    1.39733741192861    1.90116789205619
H         6.43557734086522    0.40250154681920   -2.18035848557124
H         5.90896808139769    2.11432661542847   -2.33740460082812
H         4.39122356514811   -0.49488831019683   -1.86696820794716
H         3.82749319459922    0.89869887673490   -2.96505265741830
H         1.86036365251548    1.97375130172075   -1.59709560012748
H         3.24425997857547    3.15222929853060   -1.78441221699572
H         1.54816199533227    2.86375711632937    0.52320104098020
H         3.46507656103872    4.98002956923920    0.63407518125199
H         4.42992227946291    3.69988645791882    0.21134348503662
H         2.93228302879395    4.02060212563022    2.87522805489613
H         5.73680716684194    3.65680041375922    2.05079747074121
H         5.05779795000334    3.73312008858996    3.57434727647551
H         2.93588862932306   -0.17987248706945    0.67163510238893
H        -0.14776963822307    0.92671645419243   -1.62648902673375
H         0.05790125044667   -0.83322038282760   -1.92363490586499
H         1.18700319985979    0.26485794151269   -2.56120772344637
H         1.17796326161894   -0.52623877857547    1.42373178912338
