39
 energy: -52.273357626770 gnorm: 0.111497028016 xtb: 6.4.1 (79825abcba525fcdf90b791dcacef51065a7a4e7)
C         3.64094151984327    1.56056200749077    3.68259162282945
C         3.68377025257653    2.10256333501610    2.24784711802638
N         4.78514449992436    1.53962653827309    1.48616826895455
C         4.79911313778743    1.20084653818950    0.15841242312744
N         5.85708641300761    0.84199596378631   -0.50655011338351
C         5.52922552633041    0.51820350646309   -1.89379963130933
C         4.01595179910508    0.38311816487295   -1.98677338849038
C         3.54570886568106    1.12529017889677   -0.73503049377750
C         3.12689032961343    2.59171510584952   -1.04762444817122
N         2.46645178725118    3.42428757300943   -0.02125915266407
C         3.29022593627433    4.22858789900739    0.87482516065039
C         3.58693680793193    3.65523462789915    2.28981736848723
N         4.77735989202482    4.42168825722030    2.72973423477054
N         2.50378785584438    0.38487596417713   -0.01072091322265
C         1.37201089942786   -0.21450436743170   -0.49397315591019
C         0.53991155486767    0.33918287252382   -1.62360741433612
N         0.77672206181971   -1.11774537823100    0.21068553582081
H         2.76652174189054    1.94098887453618    4.21729106638609
H         4.62816851085652    1.70117519874518    4.13229309556226
H         3.39946386849444    0.49308547118668    3.68317129422123
H         2.76976196785931    1.82860091658990    1.71542750133536
H         5.74149256906014    1.76795028442263    1.75122749689430
H         6.09568524607427   -0.40302380502055   -2.07622727760814
H         5.93215822353940    1.29645426980199   -2.54572790934512
H         3.71034492774083   -0.66865639850666   -1.93262567501355
H         3.55894366622593    0.91852701018404   -2.82874555077768
H         2.36247454589614    2.45265443329102   -1.82037764605981
H         4.04000976005326    3.06921004972416   -1.42511373806142
H         1.63105979057957    3.06464159647493    0.43747726776376
H         2.81443162471646    5.20722556893591    1.02495091151845
H         4.27675624086975    4.38039593554634    0.41858703298650
H         2.90615909914124    3.92478507064163    3.10873406088698
H         5.52553160895464    4.38122766830518    2.03332940540176
H         5.09699695753382    4.06309418891980    3.62730191695213
H         2.92002145659817   -0.16914643788797    0.73096931385003
H        -0.19542894637666   -0.40700534274085   -1.91280789889331
H         1.19857356527158    0.60632115665025   -2.45506045356073
H         0.05868488593261    1.29772639192894   -1.40446435719930
H         1.33327358227553   -1.51064131349496    0.97154562509097
