39
 energy: -52.269484601959 gnorm: 0.106033227690 xtb: 6.4.1 (79825abcba525fcdf90b791dcacef51065a7a4e7)
C         3.42819383714067    1.53411354327158    3.74438630810164
C         3.57570557985807    1.97605219729954    2.28253061347725
N         4.67610419166525    1.34897512449085    1.57121140014090
C         4.74084690931029    1.31485600313956    0.20280104620956
N         5.85363462994387    1.38776256502788   -0.46551361810329
C         5.52563977242839    1.25861578372070   -1.88415241406308
C         4.15369016355409    0.59983188222662   -1.90960022322752
C         3.47798070742534    1.19149912494849   -0.67179789458190
C         2.74620290471707    2.53011069490623   -0.98187257037917
N         2.36895554674467    3.43798244023599    0.12095789061173
C         3.50216574935839    4.07929966501391    0.77899802883467
C         3.80424197757978    3.51298284546969    2.19568765498075
N         5.16846271848827    4.00878772575187    2.49762214882361
N         2.53016064026399    0.22891981600030   -0.09429020688942
C         1.34357171781266   -0.34916968360759   -0.45695783613080
C         0.69811910882918    0.00750212608728   -1.77271182719533
N         0.62838491746430   -1.06911910751144    0.34112589131046
H         2.49013292701068    1.80126784836343    4.23825709625706
H         4.25734621057572    1.87945783375103    4.36877743821938
H         3.48340564221040    0.44527469844806    3.64847186108150
H         2.68041816278110    1.84024996598746    1.67101167990552
H         5.63004766666453    1.56168471109003    1.85710692898528
H         6.33281970776130    0.77348365707370   -2.44622322187558
H         5.42913142518823    2.27658655970730   -2.26815909605411
H         4.32451749640930   -0.46975694544790   -1.73826711069028
H         3.51351089029581    0.81173974682145   -2.77545341032922
H         1.91112598584915    2.33680898050044   -1.66458615436044
H         3.41276634740662    3.11121809229466   -1.63171412686824
H         1.50037069019569    3.21096149499547    0.60229556702580
H         3.32287323000075    5.15344458586086    0.92293045685908
H         4.38017377520859    4.06238734425984    0.12077554711315
H         3.06440791718048    3.90818710632359    2.90505317886816
H         5.90855560713106    3.69407619231660    1.86548542951231
H         5.51023886088510    3.85607383090906    3.44432845982671
H         2.81882130979517   -0.03434633179670    0.84254572691245
H         1.48953905032433    0.00530508586283   -2.51756689529110
H         0.34204306010647    1.03364017977091   -1.64323903847763
H        -0.12385976754092   -0.67045466954753   -2.02397617432379
H         1.08891924016932   -1.31659970217627    1.21844360673098
