39
 energy: -52.264594421310 gnorm: 0.115400529454 xtb: 6.4.1 (79825abcba525fcdf90b791dcacef51065a7a4e7)
C         3.70396258679774    1.56636419876007    3.83935724248972
C         3.63029151137506    2.08961611713490    2.39891580270523
N         4.62147140684052    1.46544573740388    1.53981656749866
C         4.61995261276995    1.40325831453222    0.17086331438959
N         5.74176266681706    1.49547208134393   -0.47974807317651
C         5.50933956901065    1.10741481716960   -1.86977922583374
C         4.10679149915357    0.51785684068158   -1.91636077598280
C         3.39140044748226    1.16076485853687   -0.72737259735360
C         2.73243903606300    2.52873267076096   -1.07082553947243
N         2.43066166011700    3.44194466884309    0.05067165508274
C         3.49049906944200    4.06367741079113    0.83722299773850
C         3.72950392428509    3.64041506545020    2.31461933223129
N         5.12151510315167    3.98850211456750    2.68774856494697
N         2.41208870643641    0.37880303462897    0.03938757379362
C         1.32420503664322   -0.26404133081302   -0.48689069039739
C         0.78369327941039   -0.00463692587622   -1.87093867327946
N         0.62608214510742   -1.16100648232310    0.12534694697074
H         2.73931985747990    1.64095258869783    4.34841423617514
H         4.43035173952929    2.07329256685270    4.48123187460551
H         4.04059224297811    0.56444192836584    3.55536746743719
H         2.64840554831871    1.86588642975118    1.97490851347405
H         5.59630514278605    1.49683892834639    1.83256802234614
H         6.29488368010082    0.39835050206627   -2.15781475377996
H         5.53015943438058    2.02034415847682   -2.46908385593392
H         4.08767224813936   -0.57133873936821   -1.79048502691366
H         3.56270229298509    0.88510633914624   -2.79586684367340
H         1.80495415741712    2.36846825125420   -1.63198858741496
H         3.41952984894982    2.93272667319478   -1.82513432210437
H         1.64636338832676    3.05150115078102    0.57037753497371
H         3.37759671018089    5.15560809777982    0.79734710177906
H         4.44659263225496    3.92785599527702    0.31580321331398
H         3.02101443465812    3.99310656537919    3.07645371565573
H         5.77154358628239    4.11090820301080    1.90745542507614
H         5.54678311064135    3.30022209796515    3.30565069663511
H         2.76939852387225   -0.14894984236930    0.82938897070386
H         1.62837532777228   -0.00870805988488   -2.55479179126231
H         0.22804550916564    0.92738574809139   -2.00914846336781
H         0.04565053269863   -0.78789953423230   -2.07144068612543
H         1.00671538853873   -1.31793553196579    1.05996798953732
