39
 energy: -52.262507141068 gnorm: 0.112169743943 xtb: 6.4.1 (79825abcba525fcdf90b791dcacef51065a7a4e7)
C         3.87307091429619    1.54893825941031    3.88362352688434
C         3.62541408724822    1.92768763473117    2.41757217724419
N         4.62729229833745    1.25644846334599    1.60778468123611
C         4.70832859841754    1.27415297123778    0.23993151652644
N         5.90576136282587    1.15268470092219   -0.25165428689171
C         5.75751788960039    0.98239498761057   -1.69589139689739
C         4.29022718594772    0.72076896707794   -2.00492108892283
C         3.53816987175128    1.19226309351134   -0.75956529360669
C         2.98885672187316    2.63494129801650   -0.96071366861598
N         2.11297485964875    3.11433414242371    0.12822856131082
C         2.76195640450484    4.04280316076309    1.04759693661921
C         3.61699803398190    3.47054086340287    2.21395620646284
N         4.98925178079707    3.94085425494342    1.90767184103113
N         2.54295020201915    0.27514408093902   -0.18784205951942
C         1.24925420077295   -0.02486567485189   -0.51958497070274
C         0.78020975981099    0.17626985671568   -1.93894194666301
N         0.51107076303971   -0.56186973215627    0.39336016822861
H         3.03956972264719    1.94325200415051    4.47101648283274
H         4.73731084238053    2.04788034884987    4.33169356304070
H         3.93821397840676    0.45912068577263    3.80699461779010
H         2.67350002801344    1.51695534757787    2.07246955627908
H         5.52140175745636    1.18190715188452    2.08945015726314
H         6.47674376730818    0.28367153638807   -2.14009393096657
H         6.05058426507031    1.90590963652916   -2.20014558207804
H         3.93476712190131   -0.30902404847226   -2.13034737583450
H         3.98623392147851    1.29774485136040   -2.88760059099315
H         2.43927193580471    2.85868839351480   -1.88196860071553
H         3.91249540428933    3.20980484021646   -1.10462396515626
H         1.84234741659509    2.28746021953984    0.65804403256107
H         1.95629078053593    4.71602820602952    1.37058393513201
H         3.50774543724587    4.60565911566620    0.47189488799261
H         3.31236330386972    3.94522185230271    3.15662047494325
H         5.48346215839857    3.58740442143750    1.08474597470727
H         5.57820523610927    3.78891422694464    2.72402553914859
H         2.90327925931958   -0.29339962451893    0.57190568502599
H         1.53987942554507   -0.12134552972033   -2.65691583280347
H         0.39957972408073    1.20068358087133   -1.98595213296098
H        -0.09683154568762   -0.47301553094467   -2.02632330267430
H         0.92773976071134   -0.65994202911992    1.32061075573069
