39
 energy: -52.271694426988 gnorm: 0.114702033776 xtb: 6.4.1 (79825abcba525fcdf90b791dcacef51065a7a4e7)
C         3.65449637146106    1.46884036025997    3.59192088446686
C         3.69773847616025    2.06543762893007    2.17901841814779
N         4.81889262441048    1.49921809329931    1.44930163101330
C         4.82582808644536    1.24803993199357    0.10216984146786
N         5.91577026481006    0.85637759751689   -0.48849337987589
C         5.62651384576970    0.53476173877744   -1.88480620704870
C         4.11201914104099    0.40582503767971   -1.96586581588330
C         3.55106861787361    1.15973926194674   -0.75931873874236
C         2.95345357801065    2.54856372257380   -1.13019457414151
N         2.52509368779741    3.50850491050506   -0.09202193688192
C         3.55665865926424    4.09966307555833    0.75348128832878
C         3.54984330595933    3.61377834721250    2.23092633525185
N         4.72956749923338    4.23518989658599    2.87914208873902
N         2.60783188758383    0.23817149808499   -0.11166584004298
C         1.29800130461091   -0.11331134711528   -0.29744047317104
C         0.57320987841723    0.40791980011842   -1.51318218419607
N         0.57188584115818   -0.92388057588510    0.39717512649425
H         2.86848043273124    2.02102592254531    4.11394396917769
H         4.64038607236249    1.49703638581585    4.06504571267954
H         3.37447839435017    0.41580094817889    3.48937391034404
H         2.87050603726014    1.72212574621913    1.55311055122101
H         5.72606906518980    1.68025320618472    1.87503271710450
H         6.19572156531290   -0.32378811033042   -2.26125135310522
H         6.07474224409527    1.36906299305925   -2.42893138690394
H         3.77851179928801   -0.63814848078314   -1.92779462926083
H         3.78337606211834    0.82766269597598   -2.92424095107602
H         2.03669912533637    2.37956445599743   -1.70623049523175
H         3.71217797769758    3.03998664599675   -1.75239026290464
H         1.60799455322205    3.21535507383566    0.24062874599906
H         3.35161959191088    5.17646286538233    0.82497154835977
H         4.56336573323517    3.94908319216441    0.34322829216752
H         2.59855605676079    3.88995998789501    2.70581217174274
H         4.75985786744852    3.88380334761709    3.83934397037866
H         4.62303298913637    5.24652371461953    2.83181754370130
H         3.04319921944364   -0.16027513588759    0.71416173508514
H        -0.35831103250973   -0.08052556288903   -1.78676825675322
H         1.26190067499258    0.25421561376023   -2.34900074801788
H         0.33624891745526    1.46455136952267   -1.35259669777208
H         0.90860124163727   -1.15522858521751    1.33319100182945
