39
 energy: -52.269245212545 gnorm: 0.116369383752 xtb: 6.4.1 (79825abcba525fcdf90b791dcacef51065a7a4e7)
C         3.86388781016781    1.85198832553537    3.90948568857215
C         3.68452933944543    2.11335430229635    2.40828287031181
N         4.64827893237941    1.34809776332792    1.63650123674532
C         4.70290016214335    1.14531664546287    0.28232291305317
N         5.80823319987285    0.65877196142554   -0.19910153653385
C         5.62422583663850    0.58434289544178   -1.64734086322780
C         4.12535190429103    0.61875852692400   -1.91017547955616
C         3.48883185802759    1.23333964798586   -0.66280213531590
C         3.09202168537796    2.72955401760660   -0.82836250258535
N         2.08763233721180    3.20129854822485    0.14705578902040
C         2.66928083815571    4.09361319937315    1.14401594264447
C         3.77785073643683    3.64302624624705    2.13750395856934
N         5.12948083860870    4.04772294921266    1.68209010769537
N         2.46352075625820    0.30133633033155   -0.17439258284074
C         1.34652048670463   -0.23594871862978   -0.75520557907619
C         0.67671417401211    0.59954665364506   -1.81743879797476
N         0.75908924516022   -1.23526863291733   -0.18683842589142
H         3.10061032335204    2.36053900961197    4.50448293618180
H         4.82609373787614    2.12569517300532    4.35205198639061
H         3.77374762233110    0.78914351767134    4.15454406246416
H         2.69926108569384    1.67812317988709    2.22455064250917
H         5.60160698214038    1.33366896843103    1.99419831176480
H         6.06337261779797   -0.37518469621763   -1.94612694661941
H         6.28399933497801    1.35330344403477   -2.05530911310843
H         3.68913517130095   -0.38455589452967   -1.98522481730061
H         3.82029786266630    1.23552861137773   -2.76514499761567
H         2.71569018592894    2.78804648697355   -1.85586923721529
H         3.97787631656573    3.36952043145510   -0.72840635643873
H         1.62927384701881    2.39588477898034    0.56999819827527
H         1.87315278280845    4.50112104690706    1.78179892397663
H         3.09384739996345    4.98661076576789    0.66784419478066
H         3.64135600229470    4.24329780574440    3.04733005168966
H         5.56169229541500    3.48423140255595    0.94585088399074
H         5.64408737221161    4.20321969526451    2.54660510551298
H         2.86427954385424   -0.15580102484864    0.63845023574465
H         0.49537949995818    1.59294473505790   -1.41564605216799
H        -0.21902603403755    0.03190541287962   -2.08566550003167
H         1.32614875830497    0.65110863692276   -2.69720271541772
H         1.29169166319286   -1.52675424036595    0.63437755701072
