39
 energy: -52.270028187745 gnorm: 0.107051359372 xtb: 6.4.1 (79825abcba525fcdf90b791dcacef51065a7a4e7)
C         3.24531133458715    1.55894557838649    3.64473508966645
C         3.52690707023088    2.00084440118948    2.20268070677567
N         4.63584485943549    1.22836450885136    1.67013061366474
C         4.80729625545773    1.26403877860291    0.31100058732245
N         5.97205304457025    1.26444691603811   -0.26657871714539
C         5.76153511508810    0.96565656595372   -1.68192393399204
C         4.36277170430858    0.39509107160392   -1.86848621592422
C         3.64417823822058    1.01343155119977   -0.66845018597719
C         3.16389397476506    2.42343686250738   -1.12093011390375
N         2.35124017566578    3.16371484622019   -0.13383131821069
C         2.95322263234383    4.11059657573309    0.79863963852858
C         3.78084829489714    3.51930058607831    1.97523604269221
N         5.20878253086743    3.91633604714602    1.93713342951451
N         2.60326787377372    0.18185723559978   -0.04923558946682
C         1.27546049004329   -0.05325057660483   -0.28452355379408
C         0.52792587090931    0.75156463502357   -1.31820478526139
N         0.53751566442815   -0.83820447378142    0.42684258608672
H         2.37192894629262    2.14617449517199    3.94071390159438
H         4.13351073576254    1.73936351780776    4.25724779530587
H         3.01258045991778    0.48955159050548    3.65186201435333
H         2.64194381499132    1.73259251111821    1.62059980301822
H         5.55562557336440    1.40670814997661    2.06911277616029
H         6.48911836661808    0.18324423783087   -1.92945127572856
H         5.95005025232427    1.88591570014117   -2.23926105031691
H         4.41395615517709   -0.69932944607625   -1.91518896113151
H         3.92841499839548    0.69763191621583   -2.82985995799670
H         2.61173640096114    2.34135809079553   -2.06390516829750
H         4.00662910257301    3.09041499805676   -1.34279573413935
H         1.58901767063794    2.59099637764374    0.22488101395716
H         2.14526815508394    4.73934746222526    1.19679984343321
H         3.52992029871145    4.78056075098680    0.14824840095798
H         3.45262226926345    4.02128885890997    2.89557062434231
H         5.76275702123239    3.49770193182260    1.18597738274980
H         5.61410405974214    4.06042425891960    2.85981341215018
H         2.91529804107017   -0.22231468478191    0.82802027259891
H         0.95653378962791    0.56218860591695   -2.29881245104590
H         0.74813696244810    1.80690668190103   -1.13307537070860
H        -0.52508276028266    0.45461985613985   -1.28072030243725
H         1.01347087377165   -1.42283770838782    1.11582408070234
