39
 energy: -52.264032901619 gnorm: 0.116989641091 xtb: 6.4.1 (79825abcba525fcdf90b791dcacef51065a7a4e7)
C         3.63376339385509    1.51574298218245    3.65172650854589
C         3.73380677777685    2.13404472564126    2.25108886016457
N         4.85753142826014    1.52665167175509    1.55942828875852
C         4.86382764527053    1.20244480043109    0.22798062651367
N         5.93901318106635    0.72361885166660   -0.32424952607933
C         5.55847239351356    0.40041019028390   -1.69812012331250
C         4.06983245636422    0.58291573569743   -1.95799010545816
C         3.59210663468918    1.19935517849048   -0.64247178923161
C         3.05567565414511    2.64821762637222   -0.83369269008191
N         2.15672166673736    3.20891021815590    0.19600981871052
C         2.71783658026369    4.18288089415977    1.12606419380443
C         3.69796643215828    3.68972027065496    2.22838553581146
N         5.01369258400118    4.30386104144947    1.92875084871131
N         2.55016608817079    0.43860818008356    0.06042285336827
C         1.41391846748800   -0.09594986345151   -0.48446029241797
C         0.84297381560601    0.52650168166977   -1.73410373076867
N         0.75536648943772   -1.05895880570915    0.06842311442244
H         2.59979235366284    1.62103443862222    3.99092504313362
H         4.33454267005852    2.01065054631459    4.33039839377795
H         3.87733962516807    0.45189421278370    3.56978527948831
H         2.80602687461387    1.80650355061674    1.77582216175525
H         5.76308910515787    1.44300292033946    2.01763996142644
H         5.81456158247538   -0.65894178850863   -1.82062699858877
H         6.15286961039911    1.05092986896465   -2.34353130028675
H         3.55888417177223   -0.37939495850960   -2.08227706041936
H         3.92609695602762    1.18530995349756   -2.86402403993432
H         2.48205817012252    2.89096990289786   -1.73527528291515
H         3.93199080199281    3.25131173920369   -1.10320322766042
H         1.38348974912721    2.60340006176592    0.46644275461548
H         1.87742317243784    4.59834021816785    1.69855743900403
H         3.21458033790560    4.95321655994621    0.52251671955224
H         3.38181141652162    4.01209284800904    3.22981561786933
H         5.38457495812872    3.75264870517340    1.15094053069760
H         5.62315692985690    4.08629635465614    2.71462878004736
H         2.87600972786490   -0.27938439042070    0.69964755659465
H         1.48413858140835    1.26273298731256   -2.21162926221038
H        -0.06761153910326    1.08974847864189   -1.51027339445736
H         0.52055327390193   -0.18933373881459   -2.49701467709279
H         1.12612887894449   -1.58249850142922    0.86307166588343
