39
 energy: -52.267309106915 gnorm: 0.115719912779 xtb: 6.4.1 (79825abcba525fcdf90b791dcacef51065a7a4e7)
C         3.39971964605594    1.48195229649179    3.66380588958979
C         3.57882445998533    1.97433089474923    2.22173226528706
N         4.69644546936533    1.36140336258371    1.52508249919908
C         4.80546752705119    1.26319758585174    0.16259490637446
N         5.88453117208171    1.29913700535520   -0.56168844531561
C         5.52096632231565    1.01750151138390   -1.94923937913015
C         4.06566182127035    0.57294426722386   -1.98594374780223
C         3.51628606942138    1.12734293665961   -0.67078733628712
C         2.98700396266468    2.51857380962064   -1.12670741754548
N         2.57143883650019    3.51088811959257   -0.11408722891218
C         3.64039054052218    4.03842519496177    0.72705298579999
C         3.69916303535489    3.52568151516483    2.19423190896867
N         4.87106658431627    4.13485402696722    2.86775701297966
N         2.51110373594235    0.30197262984416    0.01244707344844
C         1.26386974102078   -0.15858632962859   -0.31313142352477
C         0.60045793203403    0.19480777088108   -1.62081249792213
N         0.72547314423060   -1.08814560031696    0.40297306476294
H         4.32509353484883    1.45082913427456    4.24514276552842
H         2.89167827680512    0.52362237585228    3.80564505620645
H         2.82005425045600    2.25641532711534    4.17567793949204
H         2.77738945878453    1.56630380377776    1.60112526905811
H         5.58070332462540    1.61632745617655    1.96107736370116
H         6.34831772716466    0.36047203060853   -2.24354897065379
H         5.61953182650238    1.85213531681830   -2.64688595245929
H         3.93564852695233   -0.51567816853653   -2.00950222422191
H         3.65315342813699    1.00514132909518   -2.90652981392603
H         2.05106489897589    2.36608784513591   -1.67587311628078
H         3.74979537310261    2.99948542777271   -1.75213523531271
H         1.70121291835506    3.34127145193773    0.38751137658062
H         3.40385908879336    5.10766882581954    0.81319586220727
H         4.61936457361142    3.97327194282442    0.23531540279138
H         2.93013045649865    4.06526217864269    2.76360163691643
H         5.76029469218809    3.93023122709544    2.40539292855805
H         4.86824281531512    3.79915480500876    3.82884148571188
H         2.96840725110435   -0.26983338228898    0.71544564606310
H         0.21894071107220    1.21220421683472   -1.59826251657165
H        -0.29223646864019   -0.43247571411933   -1.69907356857558
H         1.20701997085424    0.10229873428086   -2.52741772032236
H         1.26475767733159   -1.35977030852136    1.22663385214258
