39
 energy: -52.259678001500 gnorm: 0.116952965812 xtb: 6.4.1 (79825abcba525fcdf90b791dcacef51065a7a4e7)
C         3.85848891892723    1.68620707815699    3.70944027716305
C         3.55865996791095    2.22951973052303    2.30622770645745
N         4.55040711963147    1.52212949036309    1.51495380187778
C         4.58527137767486    1.30123267187363    0.16295835561131
N         5.68640641147473    1.04152570461958   -0.47759631820962
C         5.38190494600691    0.84671933733442   -1.89397369802875
C         3.92088509584371    0.42068114221100   -1.86565424292282
C         3.30085123616926    1.15487291421980   -0.67597847138445
C         2.76647622992013    2.57460719749952   -1.02572683471558
N         2.72921299136665    3.67889328553549   -0.04493869515243
C         3.83010811854973    4.13874336905454    0.79472657764491
C         3.77279400752709    3.77097068865297    2.30483671048258
N         4.94677976434866    4.30700839134800    3.03456690635407
N         2.28500893455721    0.34644706159508    0.01173441827783
C         1.36582759820258   -0.42158597707354   -0.65079068975343
C         0.69749543793507    0.04559853736803   -1.91968910832483
N         0.85638261750000   -1.48396764060515   -0.12299526763020
H         3.21629719118857    2.08546141613348    4.49901219075391
H         4.92280478415227    1.81367190359397    3.92762615799311
H         3.86283909037996    0.60140219294136    3.85434502414110
H         2.54019311601448    2.00540170024220    1.97998610981555
H         5.44698541705692    1.35938351548975    1.96954247800709
H         6.15081992914982    0.16423483571026   -2.27581250057395
H         5.60770386637167    1.80064211456427   -2.37572640512021
H         3.84673068578430   -0.65668203931592   -1.67500543920721
H         3.41480402244063    0.70588296005094   -2.79677080535356
H         1.70803377324519    2.43163937961786   -1.27083218068791
H         3.26913654400349    2.87490640192901   -1.95386457775251
H         1.78771673722065    3.67571243604342    0.34395564420276
H         3.66776502069310    5.21526823182604    0.64847816393329
H         4.79735242357923    3.84447517736138    0.36777736172652
H         2.93412378736794    4.25253015865654    2.82586743769807
H         5.79344582532518    3.78256500027676    2.80112874700598
H         4.94369877388016    4.15217039624568    4.04074830397407
H         2.55446475215971   -0.03555794319528    0.91271241817545
H         1.42484343202498    0.37072146240023   -2.65889097853603
H        -0.02952703994686    0.81426977583440   -1.64202832915359
H         0.21209865915490   -0.84898862842771   -2.32281717919871
H         1.16820153986967   -1.65494651326756    0.83437617099592
