39
 energy: -52.264790115300 gnorm: 0.117400437132 xtb: 6.4.1 (79825abcba525fcdf90b791dcacef51065a7a4e7)
C         4.40104493379830    1.67467793023646    3.64914867967569
C         3.86991021836223    2.09949054866488    2.27382264171005
N         4.93493080814343    1.82881569043954    1.32379946624353
C         4.69517069498467    1.22321402711652    0.11811943380023
N         5.72325387733201    0.63537678381018   -0.41830272048420
C         5.34363699695816    0.09596583833989   -1.72280354599435
C         3.90452385223089    0.48421498394741   -2.03119534272861
C         3.43055023281516    1.19389165930843   -0.76213426431270
C         2.94327774998022    2.63319095439142   -1.10052615649449
N         2.51884230472748    3.59205090358565   -0.05974575539687
C         3.44444236356580    4.23497018831076    0.86674724765146
C         3.39633161609199    3.58193320194825    2.27749255486706
N         4.05401311548766    4.51387657080976    3.22460487150789
N         2.49414034183553    0.35069065619176   -0.00676312493781
C         1.38803901276877   -0.24761704853389   -0.54738900557939
C         0.73610040747316    0.33692027717797   -1.77552768531445
N         0.79071682630332   -1.25646147735975   -0.00683732423572
H         3.65893399877498    1.71490896955729    4.45095343912989
H         5.19748900053907    2.40773343952506    3.80703184083707
H         4.82374536158919    0.67477009992638    3.51012842333620
H         2.98378026423857    1.53108314644950    1.98120696387800
H         5.93750150804268    1.75461493865455    1.48608318042407
H         5.55412383244444   -0.97685650205547   -1.80977329818167
H         6.05332694710464    0.54792143234950   -2.41930610005696
H         3.25081058160782   -0.37691617693827   -2.21468744615812
H         3.76312395024079    1.25551973089913   -2.79900472258855
H         2.14037544638232    2.51460242456248   -1.83680158638361
H         3.85579622509264    3.10232030219563   -1.48977462501408
H         1.59285103491587    3.61999959788187    0.36383794814401
H         3.08907080004198    5.26779775240537    0.98348599023914
H         4.44094841232717    4.11880032778830    0.42186388239099
H         2.36067736904182    3.58349214807594    2.64376859110971
H         5.05879969867273    4.67321284664537    3.11786436251197
H         3.97842994098563    4.09837530142186    4.15090459791728
H         2.94104063103627   -0.29704496631019    0.63434086078179
H         0.46037534188651    1.37395376951452   -1.60320051968733
H        -0.19816358425101   -0.17790993283104   -2.01762954614068
H         1.37445452807787    0.33284804161843   -2.66485096835345
H         1.26381939755250   -1.56126598773703    0.84539096454466
