39
 energy: -52.265366674363 gnorm: 0.107325914014 xtb: 6.4.1 (79825abcba525fcdf90b791dcacef51065a7a4e7)
C         3.90299927730902    1.39801981971688    3.59210713923373
C         3.63494158477321    1.97556756046998    2.19615755847674
N         4.79621048000994    1.77498034190475    1.34686545549787
C         4.88416411018622    1.40279833995748    0.03094474577844
N         5.97996292624185    0.95474599404735   -0.50639165290175
C         5.72336812088511    0.40617339473208   -1.83681367212373
C         4.22585473808875    0.51078889239889   -2.08860485108800
C         3.63809486436362    1.18893369614100   -0.85027293715611
C         3.01982298615892    2.58769154284301   -1.14137834662103
N         2.35663835726989    3.28247555630468   -0.01877288251667
C         3.11633015387972    4.13159457852642    0.89245443716596
C         3.36475231914813    3.50505268237344    2.29413412878438
N         4.44824833234348    4.27705542790284    2.94845308239808
N         2.72195524716979    0.24074761338209   -0.20214619613635
C         1.39386373888322   -0.05010975994070   -0.36115395849987
C         0.57931421038506    0.33240312225233   -1.57161889517888
N         0.63925282402551   -0.64168396725270    0.50334548426395
H         3.19824716465493    1.83447528189184    4.30489682687647
H         4.92556295076688    1.56458384195871    3.94316351389804
H         3.75552436392470    0.31644883609139    3.51290291584893
H         2.77961797113411    1.46439702371062    1.74775662342282
H         5.64218604879568    2.03548887352430    1.85030402795036
H         6.08232453181522   -0.62687287979172   -1.75446132936498
H         6.32518893430746    1.04502263273649   -2.48698507008179
H         3.76372661333161   -0.45838640676541   -2.31152657616451
H         3.92239522181111    1.10736734668445   -2.95834196778652
H         2.28186846573496    2.57118596782294   -1.95129657897857
H         3.73756893281418    3.31070885574960   -1.54926728909613
H         1.79639600951843    2.59391034179895    0.48089759377870
H         2.51171281590939    5.03128012636482    1.07036860645399
H         4.06664814442570    4.41898585686302    0.42475482933052
H         2.50247537994847    3.78232048551593    2.91569774599253
H         5.42040656310290    4.25195701851314    2.63118961603256
H         4.32681539596297    4.20519884201289    3.95665741576166
H         3.21333786274642   -0.45677452610044    0.34767340846599
H        -0.28093508097467    0.98424137654521   -1.44419260494654
H         0.06769050780019   -0.56960213655975   -1.91967113027382
H         1.16186578263729    0.77694787730092   -2.38489749699719
H         1.09642598660624   -1.01959414096502    1.33473076107614
