39
 energy: -52.272477828825 gnorm: 0.109752520238 xtb: 6.4.1 (79825abcba525fcdf90b791dcacef51065a7a4e7)
C         3.58430686691202    1.34425630705648    3.59451463002029
C         3.66624314981228    1.83592810419795    2.14343336406509
N         4.89123443532836    1.51954880911490    1.42972595656136
C         4.85471104051628    1.35903597100109    0.06928327568734
N         5.97270567667943    1.37776339345437   -0.59403689554135
C         5.74806411635750    0.89925404864558   -1.95688704270261
C         4.34535051781551    0.30907191509289   -1.98801831824007
C         3.64509141279902    0.99093265888031   -0.81179082914080
C         3.01895250795833    2.36165403302271   -1.20243005888989
N         2.46995112044199    3.23899843562213   -0.14808382091475
C         3.38035409134004    4.00389265000498    0.69724052138320
C         3.44977203623485    3.37685719273793    2.11885297452544
N         4.45325500025478    4.19072992676005    2.84598312862490
N         2.66232839836861    0.06791250425067   -0.22814059981592
C         1.29443764948918    0.10772714463373   -0.19654545453193
C         0.43756463147088    0.54734404652895   -1.35738051320306
N         0.54702602580551   -0.30435971105888    0.77212232340698
H         2.72271351392373    1.83070227464859    4.05955792283723
H         4.45260803606678    1.60996624201229    4.20449162019172
H         3.46493930357503    0.25635051878684    3.58900729987078
H         2.85719483836564    1.42125976071884    1.53727480037469
H         5.81404212511448    1.69184938053369    1.82435013293165
H         6.60459641283198    0.24727515468375   -2.16686839682125
H         5.82729391049930    1.72686274281892   -2.66528380995873
H         4.33623802339478   -0.75845294189259   -1.73728955091815
H         3.87566685100654    0.58722329066819   -2.94010300402466
H         2.28521630517386    2.18070848751994   -1.99597070326440
H         3.81560347505774    2.97703920339802   -1.63939117130828
H         1.61711320613152    2.91138662912058    0.30247374700978
H         3.01624494052863    5.03040805431004    0.83985999359081
H         4.41284115179577    4.04139912570112    0.32709907666632
H         2.52445490769335    3.53782472345093    2.68860551366554
H         5.44010231054699    4.12961865952856    2.58373236371447
H         4.37280584157173    3.98617116905618    3.83999970453161
H         3.09707138168377   -0.53561134115872    0.46254972167731
H         0.93690433617755    0.33642655552992   -2.29936410794489
H         0.22525562755057    1.59176037352571   -1.11114467596573
H        -0.53703931637370    0.04917978147257   -1.37707756175765
H         1.12141047404821   -0.63479135882415    1.54924671285086
