39
 energy: -52.260384412797 gnorm: 0.130834714794 xtb: 6.4.1 (79825abcba525fcdf90b791dcacef51065a7a4e7)
C         3.65965310825767    1.61104408223500    3.79804354244639
C         3.59237249509480    2.04476187824262    2.32785520221742
N         4.69423383088322    1.38306586180627    1.65099645919626
C         4.67128232513015    1.15690705680290    0.29961640957364
N         5.78939713266098    0.83960171021608   -0.28295802284757
C         5.54994273519799    0.76091712522787   -1.72284200342492
C         4.07654191910907    0.41246249715055   -1.87955496419012
C         3.45867506754209    1.07607215925027   -0.64802309176452
C         3.16209670463343    2.49478194695760   -1.21620423649815
N         2.54702350648534    3.44482600249850   -0.26652904552449
C         3.46586449612461    4.10780221385593    0.65252685603524
C         3.66129721955833    3.58322994472278    2.10359689666905
N         4.98554089620377    4.00085622658302    2.62326229170169
N         2.40542704272690    0.32599169007662    0.04946154083115
C         1.15510016936061   -0.06269730389617   -0.34967769765120
C         0.55636257683319    0.47316488236977   -1.62615622618306
N         0.62477785789645   -1.14009137739135    0.12438688589567
H         2.74641243992805    2.07043172164817    4.18559035512929
H         4.54546482561415    2.09589533806298    4.21861159214464
H         3.77513072804436    0.52424708732658    3.85596731765912
H         2.69705168318440    1.65162518514154    1.84022686488391
H         5.56829095900779    1.64339739033445    2.10403221058639
H         6.26269522590872    0.00330713120035   -2.07044408370139
H         5.84076244032124    1.72693541724862   -2.14149705102364
H         4.02266186424985   -0.67860120937515   -1.78346024966387
H         3.59632798035922    0.65976996226880   -2.83489247877062
H         2.44833234284675    2.46063420143279   -2.04698171713493
H         4.02286298406057    3.07687023203245   -1.56910834796461
H         1.76099367949878    2.98717841716666    0.19214287180440
H         3.14550667300551    5.15238879376468    0.76592617287435
H         4.44303739714470    4.06374143550303    0.15489976069298
H         2.78579282397561    3.93856227464238    2.66392829685814
H         4.96230489228511    4.77489309063784    3.29162199037317
H         5.45337303334899    4.40844955485587    1.81617736635876
H         2.84936254196284   -0.17608833891465    0.81178203218411
H        -0.33866444110761   -0.05148551915895   -1.94992777056522
H         1.39533849671025    0.51158516448006   -2.32698141830544
H         0.31715818562235    1.54014131377407   -1.57370609196493
H         1.05644187408199   -1.40892852604202    1.01006044257299
