39
 energy: -52.263864294377 gnorm: 0.119406605930 xtb: 6.4.1 (79825abcba525fcdf90b791dcacef51065a7a4e7)
C         3.49287813713399    1.80519439831183    3.79360727064962
C         3.59334817056281    2.19019272833209    2.31179297405982
N         4.56640742596364    1.35012317927615    1.63539323972902
C         4.62609427726554    1.26092196866684    0.26923686919556
N         5.76566111928892    1.11168038433357   -0.33852188991805
C         5.45010180330951    0.94244713508994   -1.75576497672669
C         3.96307919392863    0.63728713278076   -1.86770544354136
C         3.34040025205473    1.16702027097454   -0.57524201608858
C         2.79937183022203    2.59224543896098   -0.89075337934279
N         2.41927246556835    3.59491133879458    0.12559658160213
C         3.50437358799130    4.31773475829150    0.78023527369718
C         3.83647156897159    3.72148694800904    2.17779519994812
N         5.26408613571517    4.00349766724729    2.46147061754631
N         2.44161942621101    0.18520290944963    0.04658159415515
C         1.37999130793503   -0.38996358602617   -0.59827326042648
C         0.72457225146284    0.11853496134512   -1.85799048547774
N         0.91445756305895   -1.51656508333893   -0.17306229577190
H         2.90868847847354    2.63184301652397    4.20665999982967
H         4.43366733576428    1.88138408884550    4.34653713303539
H         3.05866391457849    0.81604617714780    3.96928240773039
H         2.60175540457188    2.03301604445467    1.88054307120524
H         5.49495090335605    1.39250705440952    2.05132638471478
H         6.10026363088737    0.21553235356995   -2.25746280895190
H         5.71444609886406    1.89453999502714   -2.22125479220500
H         3.82367808741696   -0.44472253989276   -1.97896936903131
H         3.59881630255981    1.12954066009953   -2.77843876700300
H         1.88002143707545    2.48718672373605   -1.47775795231128
H         3.58140626261149    3.04225703097322   -1.51541199431758
H         1.85937861517628    3.16351578388800    0.85913654285980
H         3.30199921732821    5.39739529977221    0.78546830344451
H         4.36410703636761    4.26646624469018    0.10003611975809
H         3.14718968700953    4.16653221462174    2.90825086724971
H         5.93565287435021    3.52083713149555    1.85946182465494
H         5.51606642025146    3.59283499255664    3.35826903868626
H         2.76172341587387   -0.20455842917909    0.92744204216488
H         1.46443143207744   -0.05065352243526   -2.63589990967477
H         0.32354115878475    1.13615506614967   -1.86965375067437
H        -0.04591494285803   -0.62345459514353   -2.09081970760196
H         1.29001800015705   -2.14599980868480    0.53812766256688
