39
 energy: -52.265244473064 gnorm: 0.109407134338 xtb: 6.4.1 (79825abcba525fcdf90b791dcacef51065a7a4e7)
C         3.75885052486775    1.57322071648075    3.72817488248809
C         3.68407315131631    2.12733058794702    2.29937743196396
N         4.71440387258691    1.43649712134473    1.54356958810540
C         4.68729638188101    1.19461454489501    0.19499232808167
N         5.77554608836237    1.11423481109474   -0.51176650452680
C         5.37103499361404    0.92067271923513   -1.90306088027294
C         3.87802589567336    0.63468074871302   -1.98066227371785
C         3.38837044311601    1.16884923561199   -0.63392192551128
C         2.79576182551929    2.59358144762695   -0.84002667251103
N         2.37885304678516    3.37681700643696    0.34129074579605
C         3.45363535477292    4.20897521249611    0.87122063720165
C         3.80759597306344    3.67864526871648    2.28982428773620
N         5.09759628144764    4.20967990893841    2.79180691519137
N         2.43885701486175    0.22612262111619   -0.02718661175071
C         1.32569399949570   -0.36629158073879   -0.55974842931600
C         1.07295864574509   -0.29368430697108   -2.04497078709595
N         0.38067293510181   -0.86882764030878    0.16215854315150
H         2.97297072360124    1.98095503823760    4.36956689295132
H         4.67069537924322    1.93384882339786    4.21305316767652
H         3.55702323816172    0.49886785409251    3.67479299668554
H         2.69458949595735    1.99956128453428    1.85380554405125
H         5.67958214725916    1.55206495141549    1.84699131175038
H         5.94577680828181    0.12996263617952   -2.40031899643733
H         5.67508251441704    1.82153931986828   -2.44067967215269
H         3.80880689478665   -0.45688495885223   -2.05972113148582
H         3.39159154185593    1.16758871218488   -2.80760054625137
H         2.05820873050838    2.59831595664434   -1.65046474756077
H         3.66412209287098    3.08028295830700   -1.30193442754571
H         1.50105096854710    3.86540306912880    0.17273423043285
H         3.16333156205319    5.26831786302287    0.85831640232037
H         4.39379637323497    3.97447451549505    0.35590748776432
H         3.05414261910180    4.14394710371240    2.93985700541918
H         5.86531855791948    4.01302557894339    2.14504015216101
H         5.37250152847800    3.65133619355378    3.59745243658870
H         2.67944610494504    0.01584859967401    0.93624337553071
H         1.57084143173997   -1.00903073717453   -2.69424086573585
H         1.32902432099334    0.68750193837534   -2.45511293486647
H        -0.01108416103071   -0.42440081546593   -2.12353831945030
H         0.58900507392974   -1.10546636570964    1.13356202015208
