39
 energy: -52.261399536872 gnorm: 0.112462757500 xtb: 6.4.1 (79825abcba525fcdf90b791dcacef51065a7a4e7)
C         3.48859872970089    1.31192598824583    3.53985644077768
C         3.50339991912846    2.03939394811603    2.18905562151363
N         4.66197078361888    1.49953317315134    1.49888052085693
C         4.78703797061495    1.34263220109801    0.14328363943536
N         5.96176307183481    1.24231755374521   -0.40463448322767
C         5.68808200137624    1.02485850561814   -1.82400257558854
C         4.22046428948754    0.66690755428501   -2.01070798765033
C         3.53815423432046    1.19285210023427   -0.74712447065226
C         2.85697613923302    2.54793944485088   -1.09820947315116
N         2.31125116050975    3.40719726318745   -0.02739579085551
C         3.17944485036550    4.17042076309385    0.86266014231776
C         3.57856912156670    3.59262055378414    2.25039967442831
N         4.97765280539763    4.00887016959903    2.50998828747991
N         2.65328861840787    0.24066880720848   -0.06243713475973
C         1.37602460410725   -0.18963205985155   -0.30149018484730
C         0.63986628314542    0.08632863001906   -1.58871550929837
N         0.85247137086040   -0.83818258144433    0.68442624683296
H         2.58283338342988    1.47406401164433    4.13022789063707
H         4.39021195046769    1.71125921686147    4.01340390088548
H         3.62334346564749    0.26527611716121    3.24970844875089
H         2.63319004025424    1.81320026520527    1.56816239911500
H         5.55446068773595    1.45580174596199    1.98728516556400
H         6.23102255903586    0.26360797754224   -2.39717742233019
H         5.79702731581194    1.99774530540877   -2.30842149123555
H         4.10255475247532   -0.41744162953852   -2.12402811368413
H         3.90170041393668    1.14639294271695   -2.94500961629804
H         2.06401722906967    2.25458295087356   -1.79532853768161
H         3.61932586919887    3.18568083978065   -1.56339274537622
H         1.52899516779212    3.00985200050126    0.49015268421174
H         2.56155794843792    5.02732199812723    1.16363474732055
H         4.09608866198880    4.52201447702319    0.37216352316069
H         2.87456426423113    3.93887905599097    3.01930961404622
H         5.53793804732038    3.62545719417233    1.74483954117505
H         5.35475030516335    3.69832549559442    3.40315388541297
H         3.07295041955573   -0.10768590678812    0.79361693907463
H         1.44839790102371   -0.13675841371738   -2.27985096698492
H         0.17683092904731    1.06510999434835   -1.74395066382764
H        -0.18983180301726   -0.62580604305166   -1.64232295441237
H         1.55021584108870   -1.04839925849251    1.39995855762584
