39
 energy: -52.261584164464 gnorm: 0.115546103117 xtb: 6.4.1 (79825abcba525fcdf90b791dcacef51065a7a4e7)
C         3.85113855653031    1.47826437066063    3.85251962499823
C         3.69239347560420    1.95761205575368    2.40368652639846
N         4.69878312074807    1.28852190217139    1.59772373926824
C         4.71965521106632    1.41371189452568    0.23324786067754
N         5.80860890290864    1.37398116812077   -0.47587672677211
C         5.49179859981107    0.89504857957171   -1.82014245396261
C         3.99798270109249    0.61821859301620   -1.91378407013514
C         3.45131059321038    1.22788544911820   -0.62217116223373
C         2.79003259315043    2.57085708128007   -1.04956395374253
N         2.38238885866614    3.45864076441049    0.05878997432883
C         3.51231249372545    4.04136573613749    0.77445341431548
C         3.73762416400481    3.50180351139544    2.21566177178419
N         4.92971942437336    4.21902924519380    2.72808862058324
N         2.46307651111482    0.35417220355447    0.02471019132264
C         1.35566633376563   -0.21074568639291   -0.54819382941159
C         0.80036264876397    0.04125342092619   -1.92774689724366
N         0.58304503808255   -1.03828909400347    0.07227793374565
H         3.19302558351755    2.06716818525168    4.49697106735222
H         4.83204386629621    1.72872574954561    4.26690409697429
H         3.50790949705884    0.44239371696386    3.93608846178639
H         2.73033970425770    1.58309724952095    2.04573624020252
H         5.63419268311294    1.38721120381843    1.98792770515856
H         6.01720034075576   -0.03200173053638   -2.07965536394985
H         5.80898630883849    1.66144267823005   -2.53082629957509
H         3.81927431159933   -0.46242578441464   -1.86060223815754
H         3.52167964280249    0.90932941882979   -2.85867880263673
H         1.84069773933230    2.32448603146256   -1.53831900565289
H         3.45067580229524    3.16395589859090   -1.69459962224144
H         1.67066998015371    4.15698842350588   -0.14961086646600
H         3.21974181720515    5.08821907326565    0.93304141169890
H         4.38518061026038    3.88299325855221    0.12834168738304
H         2.89102071355701    3.93437399556426    2.76601225945872
H         5.63870513180718    3.94392366684296    2.04395862283614
H         5.28723327451186    3.73359953315866    3.54840998816737
H         2.72289559047741    0.10277213386141    0.97317613645928
H         1.45510191551439   -0.48207224423290   -2.61956057206049
H         0.62710605290826    1.08062021489356   -2.22136479086106
H        -0.16441897061655   -0.47339106118027   -1.98014867869644
H         0.72608908814148   -1.20427940694954    1.06978006061594
