39
 energy: -52.272722860635 gnorm: 0.109245240856 xtb: 6.4.1 (79825abcba525fcdf90b791dcacef51065a7a4e7)
C         3.81707818224083    1.31535393939745    3.48629913111305
C         3.65660516399715    2.01920215892432    2.13243885239491
N         4.87561566246263    1.70360863447894    1.40822071756405
C         4.84438220676979    1.27115447625912    0.10825514615472
N         5.93306523040211    1.03086954939458   -0.56054137934572
C         5.56634810740630    0.70878592294324   -1.93842970333471
C         4.09336931829998    0.32562666734394   -1.91813160999999
C         3.54348366817566    1.04740631287965   -0.68708818988217
C         3.12912739083022    2.46485769785725   -1.17970005584013
N         2.54907553062452    3.47365202904212   -0.26939486323805
C         3.46207711967508    4.07606092248833    0.69600743340758
C         3.40392283596305    3.55455612391706    2.16011982839370
N         4.35985060905525    4.26260739442246    3.04496480691709
N         2.56732116831892    0.27754137233268    0.09576024267162
C         1.25722871270451    0.02248723694336   -0.20807145228952
C         0.65865618231940    0.54865615273223   -1.48865320065354
N         0.49176383399076   -0.75380977937399    0.48343663237635
H         3.25819142667115    1.74179403513837    4.32357595968594
H         4.84917276444129    1.26266337223038    3.84494254475726
H         3.61840890371250    0.25072336804837    3.32846942314917
H         2.84764821383952    1.57865902076559    1.54469094319871
H         5.80411319792305    1.80351335734444    1.81430091857951
H         6.27399329310858   -0.03565380438949   -2.32296058934043
H         5.79755736054277    1.59889466939542   -2.52774132641514
H         3.97139452294124   -0.71590087593801   -1.59735162255346
H         3.57877652934487    0.52666964455136   -2.86639958886808
H         2.24074354706585    2.31686693147423   -1.80395140110771
H         4.00280028439151    2.88342124820450   -1.69524530640608
H         1.76889844070965    3.08538626659190    0.25808739664124
H         3.20543984721116    5.14353586153230    0.73184355388119
H         4.50755866944348    3.97002342777887    0.37951835865732
H         2.40125041910115    3.76257233138122    2.55775982768094
H         5.23726915191073    4.35744278080876    2.52774085531036
H         4.60781309923337    3.76252482567005    3.89632685227635
H         2.91150380584704   -0.32090916817681    0.83986431081229
H        -0.27674325729495    0.02013726306179   -1.65252843976286
H         1.28076613098516    0.34984030137864   -2.36612919677634
H         0.36830940679152    1.59579205797900   -1.35593692228439
H         0.77579788407600   -1.04201103731096    1.42114104845022
