39
 energy: -52.264003437509 gnorm: 0.126782094465 xtb: 6.4.1 (79825abcba525fcdf90b791dcacef51065a7a4e7)
C         3.91913380001372    1.50541844594933    3.61053861542217
C         3.69489014972594    2.07651606559305    2.20424779963343
N         4.87663274953911    1.81766237977145    1.40016013016157
C         4.80928048410191    1.21558756568546    0.17098470584577
N         5.92262798564183    0.87645766259366   -0.40841552350325
C         5.57146142346493    0.27924773923787   -1.69558991006161
C         4.12085106364241    0.64443372805003   -1.97711844503317
C         3.52251502661197    1.18198153274620   -0.67640928084020
C         3.00908817627177    2.61850208322825   -0.98677609237153
N         2.23844154227258    3.43034913439587   -0.02251999523241
C         3.02842509140445    4.24470956811436    0.89465667295887
C         3.46437059980388    3.61497189679058    2.24830221655670
N         4.65579398558785    4.36647992353915    2.71072101953611
N         2.60156011419892    0.21871519153452   -0.05802675914237
C         1.38093822452344   -0.22829382283089   -0.48694832424692
C         0.62386670926666    0.57328649051434   -1.51619277947195
N         0.82249347956668   -1.30448137032291   -0.04342064143141
H         3.14267062928195    1.93879504917330    4.24656354929523
H         4.91353145831932    1.65172473287434    4.04226583031631
H         3.75504637927991    0.42345212594189    3.62609989593780
H         2.96360530942619    1.51112679187533    1.62158609366015
H         5.85914771073271    1.97086492417417    1.61966661718662
H         5.62529163461204   -0.80856673949442   -1.56683358902038
H         6.31813143444781    0.66421388857478   -2.39367618542059
H         3.55290253645167   -0.25817773900069   -2.23262632735596
H         4.02630355032047    1.33030097598548   -2.82863653881707
H         2.25586153311966    2.52350288439509   -1.77699228868346
H         3.69052626061083    3.33862646809587   -1.45725422267826
H         1.56188590215932    2.89284358191557    0.51694675119991
H         2.56775283645887    5.18872767609589    1.21599846288693
H         3.94561290089879    4.53486760468285    0.36643721960032
H         2.65255969777782    3.77251267062097    2.97140957597382
H         5.38628533934932    4.20628601120767    2.01279698433678
H         4.81594711988051    4.01108780272287    3.65116385164136
H         3.09753435728729   -0.40708207226978    0.56861743757947
H         0.92485500815152    0.21684018144905   -2.49777899490905
H         0.82472159800124    1.63537924598078   -1.34847589521861
H        -0.44606181258895    0.34474187726593   -1.47839353674471
H         1.26612461990663   -1.84023261797352    0.70436735821389
