39
 energy: -52.270655255596 gnorm: 0.103902664084 xtb: 6.4.1 (79825abcba525fcdf90b791dcacef51065a7a4e7)
C         3.56003088819494    1.57735119975808    3.82064916156759
C         3.53719288260398    2.14299555092869    2.39459992048843
N         4.59124487141436    1.56892566114339    1.57637261216413
C         4.59467966382108    1.36452409753343    0.22134094924862
N         5.71479621824898    1.11605690371133   -0.39009941595106
C         5.47903492320325    0.73050869986080   -1.78026657684571
C         3.97091946817253    0.60318202514537   -1.94233207307716
C         3.36521446363958    1.26189467839585   -0.70215988274909
C         2.80269824005585    2.66095064903626   -1.08912743327768
N         2.52478645796656    3.62021415717121   -0.00038491612422
C         3.69169276512840    4.10975534836942    0.72566540221860
C         3.74717912754534    3.67486010734024    2.21789918921754
N         5.06796740692670    4.17617485822471    2.66766244718466
N         2.38733612876922    0.43308343005485    0.01565820846885
C         1.34004879785889   -0.31510663694688   -0.45029182438596
C         0.70597569463719    0.12223285449218   -1.74710248518706
N         0.89393983769044   -1.43224974076697    0.01846723112356
H         2.64872444170503    1.37567693040018    4.38993475956347
H         4.28467622752553    2.12119253963148    4.43363068435140
H         4.03606998815544    0.59894646368177    3.70262840148192
H         2.61557423971821    1.86307853794708    1.87865152322094
H         5.54526837883045    1.53507497581722    1.93089064879768
H         5.94462667811810   -0.24434513386131   -1.96921244093661
H         5.94356288614113    1.48005619142522   -2.42480657984075
H         3.68325222224332   -0.45493937594959   -1.95589380923120
H         3.56516569800268    1.07393616800028   -2.84687095755178
H         1.87460616563298    2.49231052475194   -1.64682131933725
H         3.45586025047596    3.09683223404902   -1.85572596143314
H         1.78846791004349    3.23817468486529    0.59083836165554
H         3.65239024433656    5.20516446631624    0.79766428529421
H         4.63999191479995    3.78688564300154    0.27741900721859
H         2.93809146728707    4.18376930018625    2.75931296633239
H         5.82764631317062    3.83101640093928    2.07594354087662
H         5.26543972180465    4.04674792179863    3.65793445885552
H         2.75419960920406   -0.05259813583241    0.82795139313535
H         1.32989236524420    0.75526729496822   -2.37252618494866
H        -0.25084973284905    0.65155774473338   -1.71859079716929
H         0.48028992609718   -0.75124154664667   -2.36719672672004
H         1.50976189655545   -1.88135265266362    0.69824267014541
