39
 energy: -52.269797720399 gnorm: 0.108111795542 xtb: 6.4.1 (79825abcba525fcdf90b791dcacef51065a7a4e7)
C         3.40528690906380    1.41845747191284    3.58671230085462
C         3.45285272633860    1.90677957713518    2.13296865796368
N         4.69144387023809    1.53165429624603    1.47323326914847
C         4.82769110166303    1.35903120047889    0.12062815773919
N         5.99912856837366    1.30821173671687   -0.44098382655595
C         5.81876743429783    1.03711391549679   -1.86603518752949
C         4.40970999465463    0.48448679930550   -2.02743513658976
C         3.65341991201351    1.07268771841847   -0.83543976196772
C         3.04968193605159    2.44712150079891   -1.24769967523061
N         2.53966092236930    3.43567969016480   -0.27537618485426
C         3.43648382428305    4.07090393221699    0.68413869964151
C         3.33445947050556    3.45835497054698    2.11009419901159
N         4.53765717766803    4.00822799112231    2.77945216993873
N         2.71130907831198    0.12489791749143   -0.22506398188251
C         1.36192000245662   -0.10061404931963   -0.18032011528796
C         0.33524824625315    0.58898557578539   -1.04370292109201
N         0.82553588409860   -0.93968283077196    0.64127140353795
H         2.82081275738300    2.13334279375292    4.17200453142867
H         4.40259987534291    1.49717253197568    4.02919553142679
H         2.90727245844556    0.45303092764258    3.45347886002512
H         2.61169464897822    1.49253471135064    1.57190583444240
H         5.57930095835594    1.57493522003106    1.97004945114636
H         6.66589000489835    0.43078961222234   -2.20892060548210
H         6.00089198616284    1.96834434792165   -2.40703428102242
H         4.38472950379686   -0.60845465185898   -1.94134085101313
H         3.93254295396369    0.77109472693294   -2.97327005536401
H         2.30377290062413    2.25089615679785   -2.02611613332377
H         3.84358790815956    2.96795581496220   -1.79791018651240
H         1.64543208193181    3.14766180161089    0.11840624534708
H         3.34220557816211    5.16531831342438    0.67984500412247
H         4.44113619201009    3.83914747362540    0.30810210324072
H         2.38619951645825    3.68518666296663    2.61614828005188
H         5.34426981296283    3.60773809105851    2.29431140306783
H         4.56650633313850    3.93141957471866    3.79417060347409
H         3.22793911803692   -0.48215058534264    0.40333169979590
H         0.29290694446092    1.66021329542413   -0.86527140769378
H        -0.59077185410271    0.00880804647804   -0.99477986338752
H         0.60842225299651    0.47902887183996   -2.09807190231890
H         1.50548736195886   -1.40649336267027    1.24358261633496
