39
 energy: -52.253292275374 gnorm: 0.120484906881 xtb: 6.4.1 (79825abcba525fcdf90b791dcacef51065a7a4e7)
C         3.73179259532608    1.22110360942102    3.60680015408578
C         3.68091639267164    2.09243136245443    2.34493997842314
N         4.76281255009574    1.62795031634126    1.49415456776259
C         4.63912381896003    1.35980724348233    0.15598306299452
N         5.75743463086837    1.28190885795981   -0.50247659182278
C         5.48472544421113    0.84092480146558   -1.86920929997594
C         3.99699171904051    0.51947473455294   -1.88362234223762
C         3.34792827102171    1.17786399066858   -0.66540718366320
C         2.71624222859298    2.57413082860563   -0.93915459244486
N         2.42295777557330    3.40502369494227    0.24675559571008
C         3.46623381928905    4.18241074872696    0.90684227647984
C         3.77874493239821    3.64555930458477    2.33271099566796
N         5.12786886845465    4.16899662358910    2.65514411837155
N         2.37637030536005    0.36037742986107    0.07366503958764
C         1.25701016461454   -0.21352527532010   -0.46612854539030
C         1.14285843009443   -0.19849709267082   -1.97004873842273
N         0.31124471869556   -0.77348534590468    0.21116711000091
H         3.03579987833219    1.57673596847361    4.37123315321033
H         4.67222703807742    1.37208212875195    4.14476777685992
H         3.52211469248195    0.23065152642958    3.19103844317102
H         2.64572705918629    1.93303247818564    2.03363267687041
H         5.70194574861178    1.98055737856094    1.66933120298250
H         6.08868506449065   -0.04899317905715   -2.08390671225532
H         5.78128236016041    1.58404354065142   -2.61276024911845
H         3.86330814593208   -0.55908754318764   -1.73737127267807
H         3.48724801219436    0.79519649280884   -2.81559607274039
H         1.75742128021250    2.40772781692412   -1.44292962111687
H         3.46733513453522    3.06249781458486   -1.57290833750078
H         1.48816954751961    3.79029870926506    0.12266588949293
H         3.05991003130614    5.20086196298680    0.97247583131340
H         4.42861297221262    4.18898947306523    0.37937281157004
H         3.08393412562147    4.08763302626169    3.05972478394330
H         5.84262824826059    3.81878430989042    2.01261160673092
H         5.36536236732422    4.03526382791170    3.63600989981378
H         2.65826746375165   -0.17979834351719    0.88547765619400
H         1.99365557661326   -0.74147445842651   -2.37313584686413
H         1.20138189282219    0.74306065596384   -2.52372432915925
H         0.20546260028986   -0.63038778878700   -2.33497057351055
H         0.31286811842766   -0.56107683067692    1.21011899443055
