39
 energy: -52.271146379263 gnorm: 0.109664970837 xtb: 6.4.1 (79825abcba525fcdf90b791dcacef51065a7a4e7)
C         3.80611184957080    1.45260827493534    3.59210094481531
C         3.64369001513215    2.02332662907829    2.17718353745250
N         4.79450741721929    1.66380714516213    1.36697195096438
C         4.76140707513132    1.30604143264504    0.04454589542705
N         5.83116720659836    0.92714143445748   -0.58972881670355
C         5.44855590024379    0.65702144906505   -1.97444515026886
C         3.92817226183154    0.62854740593011   -2.04161923237325
C         3.43911866891331    1.27840310012120   -0.74650451495829
C         2.88086895163043    2.70734765644901   -1.01108093185387
N         2.41854497827386    3.57924062382481    0.08839207342904
C         3.49408820167496    4.16541015919528    0.88090833242398
C         3.55617536555537    3.57083831741324    2.31673694109854
N         4.68995382021725    4.20893513444419    3.02769686551669
N         2.55277300425901    0.35760307356953   -0.02196631542171
C         1.38375325858426   -0.23335284764558   -0.41929803772400
C         0.77525078373964   -0.04768500372164   -1.78688153060674
N         0.70573357380564   -0.94205130954750    0.42022133329434
H         3.02211234051730    1.79111940654827    4.27473776925432
H         4.80434043118922    1.78932077516286    3.88669390875036
H         3.78810548763393    0.36210938734897    3.50096423414179
H         2.78139769000435    1.53862265259927    1.71301631902060
H         5.69636133522864    1.70637526202133    1.83796793940243
H         5.90110063175330   -0.27216063679663   -2.34137857247345
H         5.84709671577208    1.49146442919908   -2.55574509018422
H         3.69743175957517   -0.42247058086201   -2.25298920296917
H         3.50536730038218    1.12461222391262   -2.92456421369931
H         2.10715426139295    2.65947387084397   -1.78560693303804
H         3.66767637028278    3.24704309442706   -1.55325211690405
H         1.69618539095594    3.19335088204053    0.69415593475672
H         3.38423373811242    5.25817113416496    0.90224162373076
H         4.46790249983279    3.95023340007928    0.42284105441280
H         2.66177672235180    3.89707850859667    2.86478683989996
H         5.55384938979143    3.80950429885480    2.65284073493937
H         4.72261601522032    3.95460876199109    4.01290576838465
H         2.82788308226953   -0.01780757571054    0.88007409207910
H         1.11913474931576   -0.91117927761030   -2.35015844644450
H         1.24033829433040    0.88713627148290   -2.11294203672459
H        -0.31367863212092    0.06473887940856   -1.78831703746277
H         1.04206358927756   -0.96923981299121    1.38415483083404
