39
 energy: -52.257635326246 gnorm: 0.125236091021 xtb: 6.4.1 (79825abcba525fcdf90b791dcacef51065a7a4e7)
C         3.96680631095139    1.34348751797881    3.55040148378317
C         3.73595876482421    2.00438149125804    2.18511026169265
N         4.90826143843943    1.69815359892490    1.38385581404825
C         4.87750717232419    1.41361605533985    0.04370836851588
N         5.95289445671385    1.20812196391278   -0.65741268690557
C         5.61747178859988    0.57135319247333   -1.92973839535678
C         4.10190573908312    0.48389083905051   -2.04064118155248
C         3.58761403853496    1.10357845669166   -0.74052607455906
C         2.95834211969684    2.48300614612111   -1.09368627869757
N         2.51365019186664    3.39092539095307   -0.01632215550382
C         3.55826996275201    4.09482055212782    0.71972887426337
C         3.38892558827977    3.52115861688091    2.15541991216022
N         4.17398549545068    4.34140580891510    3.10881418199401
N         2.59584227795470    0.24757268945269   -0.07563522662511
C         1.27616171330582   -0.03574045311396   -0.30341896694813
C         0.62193189892769    0.41278520615028   -1.58632212385169
N         0.55406397158658   -0.80669535909136    0.43884807498622
H         3.18127939233595    1.64360396600613    4.24905420680320
H         4.89746374122410    1.51100797286403    4.10034171902122
H         3.86512432601952    0.25772014503561    3.64307259240958
H         2.89200083595626    1.53855085037773    1.67064545415469
H         5.83910463621118    1.62464015163216    1.79020107845459
H         6.00389319864828   -0.45464452451715   -1.90104342914424
H         6.10904412634871    1.10293424875063   -2.74755115167751
H         3.70177191125816   -0.52934337846943   -2.16636550137577
H         3.80467979047950    1.12097090543730   -2.88338782919285
H         2.06747462313337    2.09479031038940   -1.60010551701242
H         3.62073226027915    3.11633918577061   -1.69735443395644
H         1.67939187875361    3.27513303095195    0.55662576617107
H         3.40215740672267    5.17783914586845    0.81642044714498
H         4.50845098684474    3.84759370664980    0.22934548747744
H         2.34392511048713    3.65962940316803    2.46451558014777
H         5.17200417280895    4.21892972718604    2.92083547311854
H         4.02825106438245    4.04169953694063    4.07075125457423
H         3.02167054814978   -0.24006615461636    0.70614111977732
H         1.41803510102569    0.51426604178382   -2.31918006222595
H         0.08660620303705    1.34989741460717   -1.40810941805940
H        -0.14112040510090   -0.33003547964426   -1.84004850714836
H         1.02529039968624   -1.06984818626578    1.30586660274567
