39
 energy: -52.264823072598 gnorm: 0.101005202845 xtb: 6.4.1 (79825abcba525fcdf90b791dcacef51065a7a4e7)
C         3.79131137900334    1.55034816895154    3.76784818374740
C         3.57897093248600    1.93609354116568    2.29808507180045
N         4.68240138518357    1.34094496552332    1.56438405000191
C         4.73408538650416    1.34333359895947    0.19499524898618
N         5.85179933304000    1.35186780020768   -0.46900706801806
C         5.64296771192724    0.93288385189888   -1.85379490378955
C         4.19078819712565    0.48522494787151   -1.94134891771554
C         3.51605627010004    1.11178785398627   -0.72029865305477
C         3.00657563590877    2.49112928467545   -1.23154488921348
N         2.46675335269884    3.43124895017140   -0.22777767123542
C         3.34797923623028    4.09616587873351    0.72605480217437
C         3.49774158495953    3.48291220300545    2.14748557413087
N         4.63966234215738    4.18019041726960    2.78616015583759
N         2.54459060701637    0.20892715740469   -0.08821166566441
C         1.24017768676709   -0.12681919607760   -0.33211713792653
C         0.62045471790675    0.48561006539717   -1.56333859039832
N         0.67322101952149   -1.08433296851011    0.32247012538220
H         3.20501113491253    0.69727111463584    4.11962881545893
H         3.74054536116000    2.41703029187285    4.43335966404410
H         4.84777828710160    1.29490007998513    3.89607415413450
H         2.70608288672482    1.45373416696994    1.85161771151987
H         5.60758804919958    1.33499407193170    1.98980618106207
H         6.33380891327256    0.12696007688536   -2.12955117982979
H         5.94200394443161    1.68024475388503   -2.59208245018524
H         4.11893498637348   -0.60308526024605   -1.82743984047981
H         3.66912524963431    0.80941027511733   -2.85085858176096
H         2.25667539673728    2.42962853027110   -2.02821555080291
H         3.87779761299873    3.00811219581537   -1.65343067595011
H         1.67590015701628    3.07179773801967    0.30420933588788
H         2.93074765316069    5.11231725244595    0.72801766585426
H         4.34909951897986    4.27109744920911    0.31181081914323
H         2.62265659579436    3.69942089177511    2.77525188194968
H         5.54151921993804    4.05147103704651    2.32090414269841
H         4.65248260862812    4.05404572933455    3.79626335007875
H         3.00914860025792   -0.53668760365789    0.42025673667803
H         0.63451404070945    1.57090260491021   -1.61903291867690
H        -0.45033709369181    0.26227318002668   -1.56951855785301
H         1.06614309325005   -0.11459203822881   -2.36304339673041
H         1.20344659377437   -1.51936672284875    1.07919421930706
