39
 energy: -52.268547167429 gnorm: 0.124259330931 xtb: 6.4.1 (79825abcba525fcdf90b791dcacef51065a7a4e7)
C         3.94156318436385    1.47254639717409    3.66477014160512
C         3.69044202805999    2.16241761535079    2.31751092968630
N         4.71705358225803    1.78308750452554    1.36239046805992
C         4.74394093671503    1.22496597877767    0.11111911350106
N         5.84552081100948    0.77659948850004   -0.41399574066929
C         5.47960381834571    0.27226278322207   -1.73632125991064
C         4.03021426100142    0.62326646134978   -2.04120789625836
C         3.46496101976079    1.21348736393056   -0.74856098474324
C         3.01533454634614    2.67411951527216   -1.04506688249035
N         2.27972744274023    3.28264859366454    0.08247746885827
C         3.13498786388283    4.14891638214210    0.88657926500718
C         3.47837437248197    3.70403416784292    2.33679986387585
N         4.65420380113364    4.50593522308782    2.75208889243981
N         2.60495567836303    0.27717236138687   -0.01225807655655
C         1.41714820872307   -0.17863204037848   -0.51729702422850
C         0.65427022599791    0.44305088194214   -1.66034555823615
N         0.91585739010568   -1.24949509337648    0.00108201172385
H         3.47330293757669    2.08064462704633    4.44335021264611
H         4.99528376612724    1.43430956956434    3.95602860088363
H         3.60824419918876    0.43054106649046    3.69545051695392
H         2.72389374643530    1.80214212635363    1.95706235005543
H         5.59743528588829    1.62185522411194    1.84810845055391
H         5.62000854609831   -0.81486026932524   -1.70073758464092
H         6.17175876072279    0.73806178290320   -2.44129807809511
H         3.37728040016281   -0.14820607410429   -2.46672494466990
H         4.07345274369201    1.40080781776770   -2.81450994197503
H         2.34149760141716    2.66729764201999   -1.90919308192030
H         3.84202391196000    3.34707377324576   -1.30584250960953
H         1.64787931055028    2.64867221457128    0.56879630774492
H         2.65405166891747    5.11806240059325    1.07659513986687
H         4.09687999470021    4.22095732967213    0.36311524119891
H         2.66913697887950    3.99279175147313    3.02126620450859
H         5.44252785315325    4.38907032537990    2.11078908267382
H         5.04115425132452    4.23987515004308    3.65534228269098
H         3.07464624061659   -0.30039200151401    0.67774611896227
H         1.25588879632876    0.44902226669918   -2.56543056052054
H         0.27810776135311    1.43771233040808   -1.40409751505011
H        -0.14926004382623   -0.25159476669607   -1.92532667900038
H         1.49821137960849   -1.66195211253327    0.73167623862403
