39
 energy: -52.268263413229 gnorm: 0.100900027577 xtb: 6.4.1 (79825abcba525fcdf90b791dcacef51065a7a4e7)
C         3.85080242218690    1.45780712637524    3.81784847494365
C         3.72160730019932    1.89495493353691    2.35282220683848
N         4.77614039574108    1.29588031683498    1.55335531251879
C         4.78985498854785    1.26777157018717    0.18334639718876
N         5.92859873816574    1.23816776876614   -0.44326565347288
C         5.63655284568741    1.00708084094914   -1.85680857051427
C         4.19292311727361    0.53359308790299   -1.94971767712780
C         3.54659450061757    1.17860634674539   -0.72292299122975
C         3.10056500348585    2.63997467192671   -1.02122874696054
N         2.19191411817877    3.18749766750427    0.00704838184092
C         2.70196374185635    3.97435257560171    1.12471501131178
C         3.67827696355252    3.44432983445831    2.21322897537755
N         4.94905782833084    4.15385241806052    1.93077750574207
N         2.52874903866725    0.34260441369969   -0.07213245660925
C         1.26812447250285   -0.06485982247311   -0.41638113729591
C         0.66365289048803    0.45565045322976   -1.69650440374906
N         0.57357034439414   -0.94270292113823    0.22684745914970
H         2.98277481535178    1.82438901320389    4.37227055544879
H         4.77573430061250    1.88351005105862    4.21772178089954
H         3.75810891413486    0.37007481765056    3.89572201255782
H         2.67665385339496    1.65774956115365    2.13894582464143
H         5.70360068276127    1.22141321936922    1.96719323681120
H         6.32329035468304    0.27764074808991   -2.30304277679552
H         5.75044024505464    1.95633071771179   -2.38500722984290
H         4.30400240723187   -0.49943519243222   -1.59890256923566
H         3.75640400801519    0.66056627490388   -2.94859957720204
H         2.63617612269160    2.62641105165810   -2.01368824635821
H         4.04168301837634    3.20285235296581   -1.06308900638677
H         1.47273323286138    2.51027787775772    0.25567729591270
H         1.88564570902858    4.44402253822024    1.69012163884984
H         3.25381140008831    4.76236810863659    0.59657048817692
H         3.34725864336371    3.85549072427068    3.17661564510463
H         5.70407532572341    3.60266087953078    1.51542930367505
H         5.36678502865913    4.44714017940999    2.81161323341903
H         2.89785843699762   -0.11985069003983    0.75260334428882
H         1.45224713930132    0.46949226615136   -2.44422556701929
H         0.20115375765475    1.43378780497091   -1.53571096432636
H        -0.12305049575521   -0.25620774895954   -1.96625271075762
H         1.10814220309609   -1.22290996904166    1.05070534904329
