39
 energy: -52.266868266317 gnorm: 0.116422686564 xtb: 6.4.1 (79825abcba525fcdf90b791dcacef51065a7a4e7)
C         3.77001498247120    1.39217346788162    3.61709795281845
C         3.71218724554999    2.03301286124070    2.22423314231320
N         4.84342564232480    1.76919942280287    1.35200614565602
C         4.78409352976401    1.35395943449773    0.04741499165222
N         5.89016300550809    0.93096905434048   -0.48919085053420
C         5.54311732385364    0.50324254070569   -1.84322366908080
C         4.03024935225931    0.50272728892686   -2.01091320017315
C         3.48307160736526    1.19864235622705   -0.76387401279727
C         2.99720694845698    2.64614510916883   -1.06751415951676
N         2.47160822188635    3.37416918308635    0.10573289603321
C         3.42909100515957    4.13541019473381    0.90084850110587
C         3.55914731434038    3.57688431220702    2.34656925183870
N         4.70669601810561    4.28640586702534    2.96122060609069
N         2.52540071755306    0.29849305040463   -0.10734172805430
C         1.30019766524173   -0.21799231319968   -0.43265529466049
C         0.62343391582021    0.31239840673865   -1.67189253567870
N         0.67285564867905   -1.06581133133223    0.31192638866097
H         2.81658263313496    1.60789651506406    4.10665731864676
H         4.57143680308669    1.88157636995886    4.17819374342245
H         3.78837886780501    0.29907311572780    3.66820897479202
H         2.81028512511242    1.65076144407127    1.74009098417504
H         5.73331913245168    2.10319613069268    1.71741760816025
H         5.95962727081171   -0.50347760197528   -1.96912140925507
H         5.99089967451333    1.14601124650944   -2.60439306450858
H         3.62611426412872   -0.50808600682895   -2.14315759246746
H         3.69166946332539    1.02514911977414   -2.91472472623298
H         2.16894920181804    2.48666435589554   -1.76706534668201
H         3.79538083876775    3.26099903971705   -1.50243916892564
H         1.57842520008712    3.82392077517411   -0.08820453119475
H         3.01895217437680    5.15417260673808    0.92449071560940
H         4.35981596919186    3.85745266566650    0.39003384259674
H         2.70417312199835    3.96786165071110    2.91480876194346
H         5.50102495690505    4.08176571898282    2.35004009762702
H         4.93925771137407    3.89473356921467    3.87165631279593
H         2.90050097366205   -0.14363509935192    0.72579578381228
H         1.39612925709358    0.60780247438858   -2.37675973710294
H         0.00902508106611    1.16413834979260   -1.36602734509692
H        -0.02378949747737   -0.47408271185415   -2.07308796264030
H         1.12878838850758   -1.33117139349269    1.18641724412348
