39
 energy: -52.262675205727 gnorm: 0.113082566173 xtb: 6.4.1 (79825abcba525fcdf90b791dcacef51065a7a4e7)
C         3.78192516153765    1.42052576901980    3.64944150281274
C         3.63561216876844    2.05249840053974    2.25901183571991
N         4.70775353002156    1.45223597667109    1.48423722694974
C         4.74554491451455    1.27982490199043    0.12528584710491
N         5.86360769579223    1.23709659003253   -0.53680650375078
C         5.55972758075770    0.84913192116184   -1.91300991811474
C         4.10683878325354    0.39873318589299   -1.96908724499479
C         3.48723602796246    1.05892852819404   -0.73659281233325
C         3.02544625780223    2.46197087480033   -1.22827198155891
N         2.65563330548428    3.44381347719562   -0.18807719157398
C         3.68249040843911    4.04597666730877    0.65538825148278
C         3.57749340744514    3.60330858306171    2.14266592473066
N         4.58509973613416    4.32178989115675    2.95912121327168
N         2.47981141890872    0.25612855788526   -0.03016177847354
C         1.21338556934892   -0.15119324216631   -0.35259485393524
C         0.50406998564946    0.49380112042989   -1.51702007715884
N         0.65576513737700   -1.10577080897584    0.31418704647648
H         2.97279890962895    1.37997361765992    4.38354522708065
H         4.51775391112062    2.02226639523923    4.19081465760099
H         4.15744194849100    0.40097580391943    3.51782477412556
H         2.66108520089426    1.71195067548018    1.90087548888830
H         5.57101468935894    1.66977999811852    1.97865054852642
H         6.20704519831762    0.04842745638748   -2.29072473578082
H         5.76632136614074    1.66668983539818   -2.60724154731144
H         4.18785373685679   -0.66935251554209   -1.73416856791605
H         3.57754452705463    0.54036418786387   -2.91999440483910
H         2.22006319325561    2.29381419853894   -1.95208018329574
H         3.90522304443614    3.01612925641048   -1.57925343387479
H         1.77298105120360    3.26579451357106    0.28826131441401
H         3.45737443169669    5.10879412329994    0.81784291110135
H         4.71539454651476    3.91445801305255    0.30861334179561
H         2.57563696051133    3.93025842158918    2.45271067903361
H         5.45597764458700    3.81507449890565    2.78251757284551
H         4.27690840697979    4.36033165607353    3.92861486543715
H         2.81079844414847   -0.33087141135803    0.72889964150808
H        -0.41430545724668   -0.05842021152699   -1.69812107673874
H         1.14774287666205    0.50216762546801   -2.40140001225640
H         0.12523246133277    1.46724291105975   -1.18945072937778
H         1.10189210138616   -1.27560169510381    1.21704533386813
