39
 energy: -52.274705025209 gnorm: 0.106069557398 xtb: 6.4.1 (79825abcba525fcdf90b791dcacef51065a7a4e7)
C         4.02414534719404    1.63190546788319    3.75207665022827
C         3.73787407372016    2.03341801652818    2.29917335866446
N         4.79119456662031    1.50175799341012    1.45186509224966
C         4.79408334305209    1.14489338892020    0.12878462877311
N         5.89554811743768    0.81820904959204   -0.47974561919191
C         5.62956182265574    0.55541726065212   -1.89289363425476
C         4.12455901173130    0.33798782014695   -1.96057316487757
C         3.53768173123573    1.08416760546474   -0.76157409310482
C         3.10844625157652    2.55264620951082   -1.04941696069780
N         2.34173471633899    3.32059420205267   -0.04682481267753
C         3.15572302758097    4.13809990659922    0.84624708536948
C         3.50876839452103    3.57196708991987    2.25117657117244
N         4.58372782366300    4.44178699671541    2.78592949027957
N         2.46402984644903    0.38529707848223   -0.04234632270233
C         1.28205533905568   -0.11555074343056   -0.51752661470853
C         0.49220068458266    0.61646039564905   -1.57361456468861
N         0.63408553186747   -1.11515597433508   -0.01985051670267
H         3.53022916594413    2.31819077844237    4.44511151603164
H         5.07802063448668    1.46130499051801    3.99053623116842
H         3.61286849409029    0.62951503951872    3.90661702885870
H         2.77782115082936    1.56355420320275    2.07231750361058
H         5.73984980419765    1.61983343643389    1.80272287883277
H         6.21363770558343   -0.34616908747802   -2.11383172809463
H         6.08884653249716    1.33597041833600   -2.50349482135644
H         4.01508748029617   -0.74474928264545   -1.82546722001662
H         3.74837205300524    0.75475683472100   -2.90355945517981
H         2.42167446939226    2.64322143976719   -1.89850912687799
H         4.02938747519373    3.06302812200359   -1.35871333811709
H         1.60016324636505    2.72442854379107    0.31693663094174
H         2.60610408368764    5.07316608930384    1.02008583014671
H         4.03083702972870    4.48984015161694    0.28509182009537
H         2.68544574830388    3.73260125227973    2.96045561738991
H         5.48351138229546    4.45238403164781    2.29945758809177
H         4.79156074338344    4.25396801907877    3.76466071527888
H         2.88255666448138   -0.20174113459486    0.67215844723534
H        -0.39869843873704    0.03158088307555   -1.78662661856919
H         1.10134117400954    0.70262043208161   -2.47806853011931
H         0.29715440635111    1.65088239170991   -1.27305416691245
H         1.03894324994275   -1.65652022579864    0.74568188515167
