39
 energy: -52.267604851381 gnorm: 0.116317128143 xtb: 6.4.1 (79825abcba525fcdf90b791dcacef51065a7a4e7)
C         4.02526518276706    1.66523096096713    3.86695418555808
C         3.64666036828817    1.99697028044125    2.41757537107415
N         4.69776572035324    1.44251044143720    1.58221344150464
C         4.81012136117098    1.19956486515206    0.23824311664418
N         5.90560113304493    0.89146097601734   -0.39044790108199
C         5.56485937110546    0.60521056044544   -1.78283839441260
C         4.04658153682142    0.51407522707748   -1.84128745976445
C         3.50787710243931    1.20144662937422   -0.58584887062529
C         3.12448554634620    2.69529477685817   -0.79787392167385
N         2.06304524012661    3.17709784311385    0.10986612432529
C         2.56670495757431    4.06813668025042    1.14950386873297
C         3.60041892733803    3.53457128749778    2.18183988460228
N         4.87533964015034    4.18643398638668    1.79747375250486
N         2.45083674361435    0.40311792184345    0.04958318078906
C         1.33474968230473   -0.10514443010273   -0.55846914618929
C         0.79273004368056    0.70582935981601   -1.70893368203787
N         0.87082805821060   -1.25967566242434   -0.21409821288798
H         3.19321560957028    1.80346969725991    4.56252704496944
H         4.77472250058538    2.37304920631913    4.23291548832967
H         4.34312993031482    0.62527112014620    3.99049962251944
H         2.74353280247914    1.51215560714317    2.03908822227276
H         5.63310834363838    1.56825912883744    1.96471991409211
H         5.96705016979604   -0.40911263092713   -1.89332478800986
H         6.07606613371490    1.30426543842276   -2.44844293462556
H         3.78758959213439   -0.54940114659531   -1.90835780631070
H         3.69885997980969    1.02720889065726   -2.74694729435952
H         2.78911433629328    2.79731027902929   -1.83611081511853
H         3.95583985838032    3.40712511244628   -0.71766016140010
H         1.53494059443732    2.38481058565979    0.47187511652173
H         1.75362815628419    4.55697602554538    1.70321124886170
H         3.02509658564901    4.88329840474632    0.57519608715724
H         3.39497931579530    3.99478258802959    3.15792410354238
H         5.29184584768487    3.88768508075061    0.91223404970856
H         5.59781123889850    3.98066460827461    2.48455384479925
H         2.98690721101989   -0.27167262671521    0.58584971435463
H         1.53092414743339    0.47566871043872   -2.47264499486802
H         0.67698139401747    1.78935368901592   -1.61359255489797
H        -0.13349055350695    0.32092503056020   -2.14753660598229
H         1.34170911529976   -1.70990802656952    0.57240463562825
