39
 energy: -52.275458459016 gnorm: 0.100264571732 xtb: 6.4.1 (79825abcba525fcdf90b791dcacef51065a7a4e7)
C         3.72613884670899    1.72470971933292    3.86103739593104
C         3.61815439870614    2.16324830921168    2.39471041372070
N         4.56269488306481    1.32615481178024    1.67554735259799
C         4.61875085563709    1.30024249457431    0.30657369676259
N         5.74714055119499    1.30020816981722   -0.33917628843986
C         5.53936635933763    0.95361685548157   -1.74398940061512
C         4.06840422836117    0.57579884877847   -1.84603591818278
C         3.39630327297538    1.20999001117183   -0.62747535822634
C         2.71364254842363    2.55941916122524   -0.99699031371170
N         2.31711529434360    3.31281021308582    0.21046559739128
C         3.43494922865061    4.08147652114575    0.74718654727024
C         3.78914128379481    3.69932491972529    2.21261563753723
N         5.16642478699608    4.13146535163730    2.55089058348835
N         2.38998905402251    0.34180650442929   -0.00135553599165
C         1.36335630079351   -0.32089172624975   -0.61825488447281
C         0.90985252294405    0.03286517671227   -2.01260878344239
N         0.63637048924584   -1.23232257734832   -0.06368982567757
H         4.37516465909667    2.29665114151125    4.52953313374636
H         4.18549127019355    0.73550859334536    3.77679307653483
H         2.70822102538963    1.74106148364099    4.26277596870463
H         2.61766886615610    1.89355811087563    2.04796396597635
H         5.51635535206805    1.33427488319369    2.03255650781136
H         6.21810085166493    0.16850676560531   -2.09858473284794
H         5.79074036741345    1.85600103280325   -2.30573079070518
H         3.98241003856707   -0.51441057680262   -1.76476065713022
H         3.59969031107110    0.85185007814100   -2.79920911982196
H         1.80540188833306    2.16966925752380   -1.47028808896408
H         3.32417684987982    3.10388057918155   -1.72849308508640
H         1.55590504789124    3.90312988833641   -0.12081339920241
H         3.20314259126924    5.15439645950607    0.78911687497784
H         4.28480661749325    3.95859830897165    0.06375087520122
H         3.18608219492459    4.19782477613761    2.98369145121982
H         5.82650944917959    3.59691715012772    1.98086942260808
H         5.31004740238618    3.80448418900259    3.50422219906749
H         2.74678237060808   -0.13513259043736    0.82054667292354
H         0.22335725930732   -0.75329235027686   -2.31565996765339
H         1.74215586503394   -0.10044566048345   -2.70975441060264
H         0.53175121065177    1.05980106331287   -2.04177289529345
H         0.90931888146210   -1.45390575170256    0.89517666839968
