39
 energy: -52.256944429107 gnorm: 0.114676987791 xtb: 6.4.1 (79825abcba525fcdf90b791dcacef51065a7a4e7)
C         3.67002068494118    1.50412215767457    3.74549627014774
C         3.70569558115991    2.00157719147094    2.29451131077945
N         4.86874052531281    1.58959791361476    1.52791016663054
C         4.79404482715346    1.31751545482642    0.18690520039547
N         5.88442258434541    1.28543329684090   -0.52041613096155
C         5.55000052373637    1.13404627360499   -1.93535054917710
C         4.19981025197136    0.43132334982913   -1.92784869849684
C         3.55198912697214    1.03221430409542   -0.67962361461357
C         3.03545883697830    2.46043814454805   -1.02152883358619
N         2.41091369531153    3.05846842801254    0.17642145439442
C         3.26964754856369    4.04907619405361    0.81653270761454
C         3.56862929058988    3.55138588375185    2.25940781359138
N         4.80911876927911    4.25518951924271    2.66429230459179
N         2.52138627294145    0.18577622256458   -0.06331420962136
C         1.27060997089358   -0.21902057830348   -0.44463658902194
C         0.67814153039331    0.21504899084903   -1.76205724369401
N         0.49209957938771   -0.99531452029097    0.23215456101043
H         4.09078359218884    2.27396355167439    4.39783119575698
H         4.33318582292218    0.63447037296352    3.72229289085340
H         2.61158911429157    1.46558424815961    4.02127769299821
H         2.84448576664194    1.58747761660682    1.76462791658038
H         5.74476502682938    1.40782392190207    2.01425269124698
H         6.34985049113842    0.53592040693898   -2.38845285767552
H         5.54585203284087    2.13091478552575   -2.38175334197290
H         4.30655022820230   -0.65704484879381   -1.84649445620648
H         3.58128465718185    0.75075724001509   -2.77627328025143
H         2.43246437557833    2.37848656706140   -1.93284573180022
H         3.83898986055578    3.14138941221175   -1.32963588438104
H         1.66424985729272    3.62700027813306   -0.21972092853109
H         2.74399890213011    5.00484523896506    0.94633526112813
H         4.17871200121335    4.24004511795971    0.23208967995810
H         2.76213733484080    3.96359494512821    2.88101436702159
H         5.57553658304069    3.65909989671583    2.34233180336227
H         4.77603220396233    4.17422783572673    3.67855843959523
H         2.83796683040518   -0.18410862894925    0.82733586978380
H         0.77113710680212    1.27564657623636   -1.98033231093783
H        -0.38279976267625   -0.05087124663923   -1.77629310886354
H         1.30303982369831   -0.29808747367297   -2.50002849168334
H         0.80060017400360   -1.38157554235829    1.12582938186223
