39
 energy: -52.259067606008 gnorm: 0.113019147676 xtb: 6.4.1 (79825abcba525fcdf90b791dcacef51065a7a4e7)
C         3.90859020372598    1.37766545610830    3.62553592839277
C         3.75932855797930    2.06064277505523    2.25975611764805
N         4.87640226854530    1.82047248362798    1.36279328753693
C         4.85772032976034    1.32966144860817    0.08347388643801
N         5.87473038249361    0.73830641690651   -0.46992122617770
C         5.58086110118801    0.15248563847434   -1.77653915207152
C         4.17146536419513    0.63769337974525   -2.08486795022996
C         3.60661991730224    1.27526078301459   -0.81472409248717
C         3.00501083717384    2.68674852121301   -1.07796332084319
N         2.23611866849132    3.33939611620942    0.00168368777339
C         3.01161039032665    4.12806686137037    0.95304114607175
C         3.45257987729351    3.58415796487650    2.34181157307714
N         4.63941532829576    4.38457809643646    2.72760214894079
N         2.64510506980277    0.37678890076351   -0.16152088823390
C         1.35160496197665   -0.02528839911426   -0.35875140612698
C         0.60400550493474    0.46708030769861   -1.57271208651066
N         0.68303735123935   -0.89241268781552    0.32525867457363
H         2.91988750382174    1.08465079655052    3.98864394143741
H         4.38842913776391    2.00543440654629    4.38202873101539
H         4.61344941230035    0.54495736750231    3.53842286915608
H         2.94030497585118    1.49138140015270    1.81357334500265
H         5.82473819608651    1.71676954020466    1.71901573473647
H         5.51160116365835   -0.93487246390109   -1.65135272496323
H         6.34586546832041    0.44265053272192   -2.50014964106102
H         3.58340925252936   -0.24635363306231   -2.35910900623684
H         4.27015491963890    1.44923266387149   -2.81705682608398
H         2.18499427253276    2.51062132928650   -1.78320719013887
H         3.75585241652759    3.35076462763696   -1.52473642447307
H         1.41777755332078    2.80530866067590    0.28931632460611
H         2.50696717266484    5.08891970773896    1.12258964085857
H         3.93889921616227    4.18999448874993    0.36931059020459
H         2.65863889961530    3.66987789021447    3.09616566974725
H         5.45344084016272    3.86687459348359    2.38742099905295
H         4.71952178919172    4.50181687841212    3.73568117732421
H         3.18694055864262   -0.22954562209914    0.44598908796017
H        -0.32567003283857   -0.07394282596600   -1.72813661981963
H         1.25027917757573    0.18764715440668   -2.40982624662557
H         0.45953226578596    1.53196048551113   -1.78143714250823
H         1.17091671403288   -1.22303188569441    1.15933874043186
