39
 energy: -52.267398268035 gnorm: 0.125873990664 xtb: 6.4.1 (79825abcba525fcdf90b791dcacef51065a7a4e7)
C         4.17279935882462    1.48331586042783    3.60257168289159
C         3.68107331327916    2.00943109552024    2.24776549199766
N         4.77564877366084    1.89094506143839    1.30016674144606
C         4.82312052784760    1.29132246530367    0.06886588542436
N         5.97396203813122    1.01029928404188   -0.46671432669499
C         5.69173440263561    0.39002828358291   -1.75993008330078
C         4.19024060430076    0.38389688573131   -2.00966656582245
C         3.57505747286576    1.12035243744317   -0.81887233370263
C         3.03644019342324    2.56717156614187   -1.01920167505285
N         2.31588612781367    3.33774084542050    0.01511284347324
C         3.02331967770358    4.15407608979250    0.99572719431461
C         3.30615659117926    3.51364330603520    2.38454806393817
N         4.35657565027445    4.35685934224309    3.00397656085541
N         2.56722538478075    0.32471030676921   -0.10496405075420
C         1.36408981018552   -0.13286997350146   -0.57057510428216
C         0.61359177224996    0.43717059616558   -1.74821633720105
N         0.68059135482176   -0.98984796089943    0.11146270745487
H         5.23870424833435    1.66328895521390    3.76595620348143
H         3.94410276608497    0.41367202682525    3.61600892949037
H         3.55045909114320    1.93411996873206    4.38185738105065
H         2.83737122482380    1.52295570572385    1.75234073610476
H         5.68360233733250    2.11904573722225    1.70089129790290
H         6.21705468782556   -0.57217857550735   -1.79175423178997
H         6.29817576471121    1.00948904914699   -2.42441237973668
H         3.73796178411061   -0.60776767056110   -2.13050751338976
H         3.97761222361775    0.92183737450071   -2.94232158217583
H         2.22300917013804    2.44196272396194   -1.74271365529962
H         3.84581667530923    3.19894780372299   -1.40657122833051
H         1.61343018828003    2.77788063337218    0.49550468408446
H         2.46949790518796    5.03288510364361    1.35297475974178
H         3.93385861011823    4.44335074673507    0.45565314438859
H         2.45505562852055    3.56291542354590    3.07732486532070
H         5.06325169259246    4.41144839809920    2.26640848072395
H         4.78522415706349    4.13427472882170    3.90013606162654
H         2.89789381462489   -0.20291596887360    0.69663717152553
H         0.19958897397458    1.42132447933234   -1.54523298821964
H        -0.17348861312791   -0.28649494125525   -1.97913909195511
H         1.30302282821195    0.50271662656367   -2.59603530656185
H         1.16729071941380   -1.31330382162922    0.94903355219998
