39
 energy: -52.263468393776 gnorm: 0.114327321143 xtb: 6.4.1 (79825abcba525fcdf90b791dcacef51065a7a4e7)
C         3.61985860751987    1.75917202711410    3.85199467969731
C         3.57459683763969    1.92647139904065    2.32750990096225
N         4.51708263484645    1.02694958259561    1.68512467016568
C         4.78145140393286    1.09666290376362    0.34230978919358
N         5.96321615194514    1.05484082750050   -0.19800432140182
C         5.84680088261490    0.90936854097099   -1.64785977389363
C         4.36221913196428    0.73590971737282   -1.93564196151213
C         3.61443277169010    1.13710974380330   -0.66337545320248
C         2.91061961677688    2.48892990473876   -0.98079517150449
N         2.17034886059735    3.00868466942429    0.18738114073580
C         2.74619213824994    3.96685654166577    1.12481441313723
C         3.88518523928871    3.42280295682286    2.03348084211418
N         5.22671095423447    3.87260512188505    1.59068077782239
N         2.62498870632548    0.17781678645758   -0.15426407220636
C         1.29736393158171    0.09377633927013   -0.47684463431368
C         0.77401010930649    0.36383846318397   -1.86544091896835
N         0.38887201631097   -0.23015904020164    0.38133091997424
H         2.73242651835152    2.16880741626739    4.34179176269888
H         4.54967488522114    2.27468102076355    4.10950737588451
H         3.62585476040502    0.72522673661148    4.21079703454178
H         2.59822574858187    1.73858212609737    1.87437160046581
H         5.37135230488197    0.83980064852322    2.20684141972147
H         6.49546023616524    0.15071093251209   -2.10227795951396
H         6.20818959436679    1.87852696014562   -1.99881510528663
H         4.17915006731572   -0.33467096573465   -2.08696936378319
H         3.96281221721779    1.31422636457173   -2.77852994196783
H         2.18141083557617    2.34867155716862   -1.78664813369247
H         3.59504772738539    3.31039175011649   -1.22786856811807
H         1.42833737972421    2.41173083883596    0.54894608091275
H         1.97138681642430    4.31021292771288    1.82369406179854
H         3.06431401850862    4.80897490764706    0.49705962311030
H         3.71994066447236    3.97486654237597    2.96871360076999
H         5.41663611626237    3.60483697750449    0.62186381048681
H         6.01836793817451    3.64316898151576    2.18819527755163
H         2.88554477730877   -0.23195683955524    0.73707857619100
H        -0.13576926270363   -0.20440121915371   -2.04026820138685
H         1.61476065554304    0.34257063512312   -2.56486843922453
H         0.44224505298192    1.40508872971297   -1.92977048848386
H         0.76295427217089   -0.43090589147574    1.31019476905326
