39
 energy: -52.260541158182 gnorm: 0.123322209141 xtb: 6.4.1 (79825abcba525fcdf90b791dcacef51065a7a4e7)
C         3.59043692185382    1.53315688245614    3.74182918205274
C         3.65354675313841    2.00753605587738    2.28406613414809
N         4.80651998563935    1.45117999000060    1.59762718885881
C         4.85560006750640    1.22598237039202    0.24678308160234
N         5.93433445768863    0.79232500785654   -0.33505003388000
C         5.59275483210064    0.39581267819886   -1.69992983734471
C         4.11617690707348    0.69804095242100   -1.91268612808422
C         3.56950707689318    1.26423755476807   -0.60143424783225
C         3.12197592631448    2.71685284276560   -0.93781304236612
N         2.14038265889634    3.29485951573859    0.00301885355986
C         2.77335760513374    4.13442047444084    1.01442880227669
C         3.67110427028668    3.55754570144691    2.14590602072634
N         4.99131527557194    4.19285305684731    1.91894213113716
N         2.59552132429872    0.35284929062978    0.01432554598966
C         1.41355289150790   -0.09303269435725   -0.51278777050474
C         0.64986179893254    0.56210270438869   -1.63644516570356
N         0.87450898636241   -1.10907376476050    0.07359878637265
H         2.59491283073747    1.70212432482586    4.16089938738431
H         4.34086977415510    2.11252012237167    4.28754833273967
H         3.87927651058476    0.47908588195027    3.79948305152855
H         2.74342932289770    1.62064555734690    1.81937353732078
H         5.74329946135374    1.66443311825731    1.93520248896056
H         5.81656444208039   -0.67772609053201   -1.71542147065837
H         6.18262807759213    1.05816764533729   -2.33740528204849
H         3.60323375848697   -0.21247051881488   -2.24497433160137
H         4.02367315557192    1.35101124869077   -2.78990276455695
H         2.61612299055806    2.92051788291282   -1.88831301907291
H         4.10229266404980    3.20460415879286   -1.01105528548732
H         1.51724138379074    2.62794482282715    0.45532833761341
H         1.97338197228679    4.60583805973692    1.60133093217538
H         3.38377959074697    4.94870138633823    0.60360943731389
H         3.35929739099742    3.91420184693823    3.13702314330067
H         5.41918164114241    3.71751976625295    1.12058988949697
H         5.58020041066188    4.09483959050603    2.74355898908713
H         2.85896485714808   -0.21030058570597    0.81666919336239
H         1.18617576797706    1.30958742058685   -2.21505845976146
H        -0.17121225343308    1.12925564301591   -1.18846346672087
H         0.25685969481956   -0.21520630096943   -2.29958053654165
H         1.31327519142053   -1.62669861095398    0.83686388823219
