39
 energy: -52.261953082426 gnorm: 0.114938264541 xtb: 6.4.1 (79825abcba525fcdf90b791dcacef51065a7a4e7)
C         3.86604307523624    1.46711253612615    3.62189883706986
C         3.67373801113734    2.06899459631709    2.22373994060571
N         4.80878580422181    1.63221552750790    1.42940480426298
C         4.84272616134034    1.21432975123970    0.12475077586336
N         5.93074076577374    0.93874491888161   -0.53139979964046
C         5.56197842229344    0.36586040036714   -1.82469528197739
C         4.05339655900539    0.50530508692983   -1.97175132287982
C         3.54949694959560    1.21346691186489   -0.71341909267726
C         2.98669983662077    2.63718804924561   -0.99591426315935
N         2.34925373263703    3.34612491749782    0.13273655974404
C         3.15262155086001    4.20589930708305    0.99520865238350
C         3.54387206091232    3.61208698050780    2.37842383188593
N         4.70606083129181    4.42588082136438    2.80870511595713
N         2.56121576032394    0.30703857876349   -0.11331500366883
C         1.32636768003020   -0.15195366278185   -0.48504732229689
C         0.72156743313288    0.40044071866154   -1.75158178421240
N         0.68857497899445   -1.09700381276247    0.12064044215876
H         2.93894481801673    1.50822248501702    4.19985804164903
H         4.62293497983618    1.91118461041825    4.27499550319227
H         4.16490160010294    0.42126110931257    3.50067043611095
H         2.79382414021504    1.72296103475891    1.67606343207586
H         5.66711101391720    1.94014724300603    1.88266593112724
H         5.83571571552938   -0.69336202325615   -1.90171456828755
H         6.08356356323725    0.81571314207275   -2.67241041050434
H         3.51687059133622   -0.44519135217777   -2.07783465192716
H         3.90187026878394    1.10472683301076   -2.87848697092742
H         2.23108499126449    2.59067392701614   -1.78818915143480
H         3.75752829205099    3.24969485052702   -1.48062611553730
H         1.51708727993807    2.87681586386911    0.48616565847069
H         2.44033448495071    5.00292206946888    1.24829266289895
H         3.95989798240708    4.70290340470593    0.44227769866339
H         2.70386268026675    3.77996953257466    3.06613014484523
H         5.39034175493442    4.31848529719614    2.05597443119835
H         5.09535649787782    4.33013907950974    3.74447629760830
H         2.91628151387914   -0.28437519651121    0.63130145766158
H         1.15315377231886   -0.24498846090602   -2.51205126791947
H         0.99431599817078    1.44868400079897   -1.90424776842174
H        -0.35234469299007    0.18854498772037   -1.73670183422444
H         1.22151410991150   -1.35751248331617    0.95198634042431
