39
 energy: -52.264611037562 gnorm: 0.104142803916 xtb: 6.4.1 (79825abcba525fcdf90b791dcacef51065a7a4e7)
C         3.60133653204739    1.60077979248985    3.84166525611499
C         3.56051534714989    2.02756981431124    2.36847977813537
N         4.56108903887494    1.28192429876250    1.62487854065375
C         4.74391762090233    1.21635160326800    0.26834747553616
N         5.90753175142386    1.16959184551396   -0.30964217369668
C         5.74064605196461    0.68859866142759   -1.67989406948248
C         4.25404305881409    0.63335633895492   -2.00215073774699
C         3.56984833262601    1.12462404430370   -0.72569408677197
C         3.01128751738643    2.54935472600554   -1.01148828331460
N         2.25741052605604    3.18163597212079    0.09063313778436
C         2.95463766484108    4.14686506248544    0.93364979842896
C         3.75021939531967    3.55390377705766    2.13132291486717
N         5.11530179984422    4.07933137638978    1.88932910616240
N         2.52254372057201    0.30336868617217   -0.10349667968492
C         1.25831499477837   -0.08699821078019   -0.45427862177730
C         0.69344599393147    0.50767169296342   -1.72010765221293
N         0.54585729424391   -0.77709632519564    0.37211449837429
H         2.56771823353755    1.64879704184705    4.19460378590468
H         4.26950604941954    2.21172304781629    4.45560210281441
H         3.86980278738126    0.54363416043624    3.93214691575514
H         2.54286794341554    1.71180020202561    2.12636304814374
H         5.47740315364148    1.05186699551620    2.00492043672963
H         6.16375425517387   -0.32312080881082   -1.69470563515739
H         6.41561083203154    1.20236229036222   -2.36801394432440
H         4.04851356299167   -0.43465632528084   -2.14237854082753
H         4.01309036030129    1.25717899656536   -2.87233650151494
H         2.29304081318316    2.39923828094792   -1.82537008795933
H         3.85354631241816    3.21402834242209   -1.24191351227142
H         1.72596939295344    2.48131800087569    0.60520984661253
H         2.31695413333082    4.95835053314993    1.30981559247897
H         3.62806185497197    4.65790634006096    0.23380865472252
H         3.37198279136134    4.00569413812225    3.05844902453174
H         5.56172193639336    3.59864419514851    1.10445551198369
H         5.71742346610949    4.05504583528693    2.70984419720643
H         2.81694935041399   -0.22411229132685    0.71221451665088
H        -0.14830650673434   -0.06923260048817   -2.09399745351483
H         1.42713392264499    0.34799625073535   -2.51554365518717
H         0.37272942502078    1.55271533483749   -1.66151473527047
H         1.14230768586651   -1.13034968404239    1.12210375160837
