39
 energy: -52.267081096808 gnorm: 0.120559558608 xtb: 6.4.1 (79825abcba525fcdf90b791dcacef51065a7a4e7)
C         4.17904897978239    1.78407982983046    3.90429056441113
C         3.81970476665611    2.02206532280636    2.43176682329637
N         4.77712254227975    1.48779578173606    1.47888436202084
C         4.61951004360235    1.31102329242326    0.12913906528111
N         5.73993838079439    1.03594460405936   -0.47021760437284
C         5.54289496783637    0.72759871726042   -1.88545336073714
C         4.03752219276942    0.54367914368757   -2.01551461771691
C         3.38545559109855    1.17285867868018   -0.78354455695455
C         2.87724253922259    2.61097084291863   -1.09511941812315
N         2.28354694449477    3.22021289986434    0.11282568581574
C         3.11028468435940    4.10472060628935    0.92684091314818
C         3.61322419683732    3.55834268088886    2.29340494864831
N         4.78076524919488    4.34836978247414    2.75252388541695
N         2.41564712430880    0.33229246268817   -0.06845231738191
C         1.29328194803234   -0.26294781952605   -0.57805410728487
C         0.70668084189456    0.24744074896792   -1.87050723012265
N         0.67597305076767   -1.27853424227613   -0.07380127632384
H         3.41566113718968    1.91592819245301    4.67571330857544
H         5.08108565344277    2.32297303149207    4.20850195505733
H         4.43841022827978    0.72083655510510    3.89632626672689
H         2.82132058201631    1.63168438398679    2.22018012052293
H         5.75139965631587    1.66830098181203    1.71381356260715
H         6.10788597001086   -0.19733110699356   -2.05310241161085
H         5.97593817768669    1.51019035415660   -2.51240104022582
H         3.72981540864414   -0.50464101668644   -2.10984720688232
H         3.59920576979525    1.17084439699635   -2.80226657810812
H         2.05099128746874    2.68369691055995   -1.81124555186361
H         3.67964394726950    3.29924733859571   -1.38959202319229
H         1.75620514468633    2.52144827955192    0.63369299920330
H         2.61136458383465    5.08235561242727    0.97109227153046
H         4.00770805220093    4.30494421814567    0.32768921622352
H         2.86132834894331    3.80155979058470    3.05645039420929
H         5.69558666309853    4.02844920168898    2.42521628705693
H         4.86648157803493    4.32525270848416    3.76667555752889
H         2.82451505758201   -0.25711227085701    0.64968742279459
H         1.45494959730983    0.30608423961346   -2.65651882831780
H         0.34727443758011    1.27388578615631   -1.75324564060660
H        -0.08085436950868   -0.45840442586393   -2.15331343076289
H         1.14081460908051   -1.68173104517645    0.74129353152526
