39
 energy: -52.269324575567 gnorm: 0.116871601529 xtb: 6.4.1 (79825abcba525fcdf90b791dcacef51065a7a4e7)
C         3.91831967812644    1.57374386561841    3.77609281491453
C         3.65664499250290    2.02005350272740    2.33164634125000
N         4.70238903846692    1.46009904914336    1.49322630972204
C         4.71221558148521    1.23590243613183    0.14136022127991
N         5.81759501666999    1.05072700507176   -0.51750450270143
C         5.50906688519118    0.73777396954992   -1.91165884595812
C         4.00625909609046    0.50127818282126   -1.96193835317060
C         3.43620633329357    1.19081726414304   -0.72162239487796
C         2.95607388297004    2.63031692084733   -1.06924223557000
N         2.42938682212660    3.63984625971953   -0.12784277432047
C         3.50037901541206    4.04012435530618    0.77837085214871
C         3.55042235327576    3.57104291212775    2.26040746957463
N         4.70677020805450    4.25760410953881    2.88456970775038
N         2.46590002110433    0.39392685720903    0.04120673632265
C         1.30946222316640   -0.14801410924871   -0.45139876246795
C         0.74191497721020    0.04200683136738   -1.83588949442624
N         0.61954283974838   -0.98538308236965    0.24830219593529
H         2.98296908196168    1.67945351478531    4.33213488267478
H         4.71912028599865    2.18901074145455    4.19655170485650
H         4.32404351946333    0.55747255263760    3.75612452349949
H         2.67142465070399    1.70559485754010    1.97895123376316
H         5.64553067742623    1.45699700181022    1.87723670489610
H         6.09174401237614   -0.13824359428030   -2.22133094978741
H         5.72242664243264    1.65179843839159   -2.47029680976433
H         3.79076988476342   -0.57308811117619   -2.00505130125066
H         3.53770801811904    0.92710198343975   -2.85835910186739
H         2.21552293074581    2.58574010216032   -1.87572475119358
H         3.85869454484210    3.13509385060673   -1.43634286565096
H         1.60440912053138    3.36369247154465    0.40207703017892
H         3.37766812424868    5.13152214803781    0.75733377589644
H         4.45945751836992    3.86863104331511    0.27319818680408
H         2.61155666560374    3.96156115290188    2.67605997430837
H         5.60822210970307    3.83074221082489    2.65752113989077
H         4.79740096507110    4.13868864772682    3.89156051314330
H         2.77622466979197    0.01857611830969    0.93177174918770
H         1.46945033515197   -0.14181307418360   -2.62205866567418
H         0.37032324172171    1.06500833618844   -1.94497735486259
H        -0.09816378768871   -0.63949362850158   -2.00391704024044
H         1.02340236329087   -1.37879700415022    1.09985833270085
