39
 energy: -52.265446922419 gnorm: 0.128825472695 xtb: 6.4.1 (79825abcba525fcdf90b791dcacef51065a7a4e7)
C         3.87547198115675    1.78931920419814    4.00375601061661
C         3.67684863930593    2.00990682694925    2.49843827212383
N         4.58645669189410    1.23637583732456    1.67118927181604
C         4.64968052465123    1.19648747625858    0.30286382782786
N         5.85318711867797    0.95895522274501   -0.12772512594724
C         5.71960458399572    0.73152673387299   -1.56551078353175
C         4.23524356985128    0.73435018807164   -1.90248859014332
C         3.47427283857651    1.27426460068701   -0.69078556742605
C         2.99001092195563    2.72158609860060   -0.99783149323583
N         2.17739022911933    3.29206476715167    0.09623593496003
C         2.68031271188534    4.06734397116925    1.22516514903705
C         3.79513747885241    3.52529823525524    2.16448751161437
N         5.05965657822749    4.01826895871077    1.56778281403413
N         2.41038913461595    0.42650240987151   -0.13590898342579
C         1.31273399020202   -0.21856534333142   -0.63865107073174
C         0.67280614734159    0.54269841362190   -1.77267154725272
N         0.81461311840411   -1.33406402879963   -0.22116405211353
H         3.05357420818699    2.08785275229228    4.65995707419494
H         4.83075817600171    2.19587594104353    4.34837252190939
H         3.92352827636185    0.69709866505838    4.05438060477780
H         2.66361683175504    1.72316163438251    2.20676079780316
H         5.52489376667461    1.15267854745853    2.05760931196319
H         6.22121768929504   -0.22734458667825   -1.74374190939335
H         6.29214667445990    1.44543307789518   -2.16181004354485
H         3.99879036620781   -0.30538949328721   -2.15859132074816
H         4.01361711666194    1.32485859242419   -2.80060761842053
H         2.35329021173193    2.69556308762749   -1.88930581929589
H         3.74189808876412    3.51091797275637   -1.12395699256494
H         1.49973535050947    2.65195689624255    0.50697908691605
H         1.88004097758215    4.26457472006465    1.95132963884415
H         3.01436233278183    5.04709077568829    0.86054476151780
H         3.82862133405716    4.12829836403806    3.08209853500010
H         5.30023240498667    3.59153590000968    0.66978513046511
H         5.87734658367509    3.78576335253975    2.12788058140140
H         2.80854822811896   -0.17314477757421    0.57976433158692
H         1.43349910691197    0.59979829077718   -2.54678089425675
H         0.23997220496682    1.49343171451771   -1.44821251359445
H        -0.13434070490094   -0.10387896150990   -2.13164251390885
H         1.27900832462807   -1.86346965817556    0.51849241533798
