39
 energy: -52.268152502926 gnorm: 0.113647239505 xtb: 6.4.1 (79825abcba525fcdf90b791dcacef51065a7a4e7)
C         3.73666267710456    1.51356349875827    3.71841377612792
C         3.67643595802566    2.01515738380438    2.26966677617981
N         4.75104645258755    1.41968239953127    1.49461864880998
C         4.77501479186842    1.42264518352731    0.12446560487213
N         5.92472495515505    1.17277652147887   -0.42869672281716
C         5.64136435438803    0.81845925746264   -1.81828716451544
C         4.17974094143986    0.39509494013852   -1.85446999093361
C         3.51063386062358    1.17312382040111   -0.72054990204199
C         2.90225498105799    2.51026472713613   -1.23577347707891
N         2.39654259447874    3.33142145054470   -0.11651553468636
C         3.48222420909572    3.93046536711805    0.65219233876956
C         3.58017606228818    3.56460293988641    2.16067647793241
N         4.68868669983576    4.33542504450123    2.77314899977504
N         2.54092783026055    0.25011221721375   -0.11544105805639
C         1.22298138185916   -0.02691436984572   -0.36035322692424
C         0.43154881574368    0.63754690154779   -1.45906070299036
N         0.69922491853274   -1.07701508977169    0.17790750335716
H         2.80699954729173    1.19304180200308    4.19614838246154
H         4.13085726977943    2.26007319342584    4.41408217269783
H         4.25333957449592    0.54922509793993    3.74865253238177
H         2.78761882192832    1.62714538449371    1.76629018062789
H         5.70244205512577    1.53345485677371    1.83942584624737
H         6.36447557673648    0.02757531631922   -2.05158734329641
H         5.89975194698672    1.71440850928865   -2.38710196754040
H         4.16716783889845   -0.66730337333185   -1.58297595456482
H         3.71279085634382    0.43305886231039   -2.84691774002745
H         2.00073618579518    2.32560316575122   -1.83073635429061
H         3.65580263069809    3.05650831691105   -1.81721182632517
H         1.68017026068804    2.79280528322526    0.36759956973988
H         3.33144338768696    5.01839190360039    0.63400830325704
H         4.46352432677371    3.72033559418248    0.20796659231460
H         2.72507155175628    3.82120292499390    2.80074913806405
H         5.60614387600781    4.22267835822154    2.33504150347448
H         4.85667109940124    3.98877236033807    3.71548570307200
H         2.99181803256036   -0.30622864452546    0.60391871111255
H        -0.45281540954414    0.01268625348441   -1.55184276174077
H         0.98116618099716    0.67463473677598   -2.40407810972561
H         0.14115317729135    1.65190488755154   -1.16724447683417
H         1.31885336109425   -1.58700983016994    0.80956472049636
