39
 energy: -52.271716199263 gnorm: 0.114914758574 xtb: 6.4.1 (79825abcba525fcdf90b791dcacef51065a7a4e7)
C         3.67328448895298    1.56856033779959    3.76880559189888
C         3.50790789027056    2.08959726257899    2.33518687167631
N         4.54998352924337    1.43418526111983    1.56408947479003
C         4.70363793871777    1.24947293058961    0.21495113994482
N         5.82429435601045    1.10328733189163   -0.42771151855388
C         5.53922835537440    0.88963557932066   -1.84541594441096
C         4.07199525583834    0.48645997105157   -1.88498860699023
C         3.45206870753145    1.20022473342919   -0.68289089263490
C         2.91962506090817    2.58432520254488   -1.15648949740125
N         2.41883079347928    3.47707757791051   -0.09113509664823
C         3.41437211700553    4.14183739618665    0.74280843470884
C         3.56342093801991    3.63958737211296    2.20722081416136
N         4.85280690920392    4.19272187571991    2.68639840934441
N         2.44166940052383    0.45177047807786    0.07694225053856
C         1.43909634594960   -0.30035455907510   -0.47338834921917
C         0.70174769958012    0.27009426415888   -1.65911072164310
N         0.98648070195244   -1.43208619145401   -0.04785390268743
H         4.13334350480650    2.31283741836992    4.42427136006398
H         4.41288228355584    0.76322459633644    3.80121022696822
H         2.74538578676153    1.20522398781016    4.22136347712970
H         2.59873803528244    1.57594714809216    2.01345573495918
H         5.48969291669190    1.60172598962608    1.91886564292535
H         6.36286822950044    0.26840851080419   -2.21758593505813
H         5.71857278951184    1.84939335837307   -2.33504852751248
H         3.99224604942929   -0.59074304953418   -1.69569787141948
H         3.62327992598961    0.79406493585801   -2.83812548754248
H         2.05800081775743    2.47978225195129   -1.82543739156731
H         3.74298101240622    3.11630171365981   -1.64981762210239
H         1.53582574223018    3.13019661650517    0.27986328277051
H         3.18761433406462    5.21631653266284    0.76973699355490
H         4.41420764065317    4.10154289606987    0.29209097677322
H         2.71910476265015    4.04342710130856    2.78235900999951
H         5.61743284775081    3.68242764158753    2.23770627460338
H         4.92391368286579    4.29439749194020    3.69683949954019
H         2.88317053108894   -0.03360605042450    0.85139818675423
H         0.18490135258273    1.16212165817134   -1.31513920129305
H         0.02911069938292   -0.47686960913545   -2.09052362996205
H         1.43175188915169    0.49940458850612   -2.44200223808196
H         1.52321171319953   -1.80908608791790    0.73497160962104
