39
 energy: -52.269283293395 gnorm: 0.114488198539 xtb: 6.4.1 (79825abcba525fcdf90b791dcacef51065a7a4e7)
C         3.98259986395982    1.79799058268567    3.88650149605651
C         3.66778349895823    2.11675201820298    2.41906380977992
N         4.70874371187422    1.37623629167454    1.72760444357356
C         4.76790118847736    1.06820701534953    0.39361757612794
N         5.89238399039063    0.79225335696201   -0.19768976184131
C         5.60039924848982    0.53457825754471   -1.60664114376395
C         4.11055799552435    0.60641256359704   -1.91012494253692
C         3.56941998995431    1.11698146659668   -0.57397486435780
C         3.08813553849834    2.56737501598652   -0.87104360732282
N         2.14049297624149    3.10694608817604    0.12576046078827
C         2.64605199752603    4.09969214099767    1.06774523824101
C         3.66534771095995    3.65009959895586    2.15304568818823
N         4.97184568967838    4.24224670622070    1.77819908880874
N         2.48562253407599    0.28003012867695   -0.04168502363557
C         1.33580198332685   -0.12519075545118   -0.66411358258682
C         0.76715764955035    0.74854889591828   -1.75418471430366
N         0.68516220542756   -1.19857525116864   -0.36200336461456
H         3.17386858336253    1.86971437333827    4.61865411833269
H         4.73123872667488    2.51373018407621    4.23846356573344
H         4.29786835484802    0.75277517133338    3.80937512987946
H         2.72323041565819    1.68570694003576    2.07853948468976
H         5.63211778167413    1.62113402121358    2.08030147015318
H         6.12245917094707   -0.38653881756448   -1.89267084640630
H         6.12235149190927    1.26630858472538   -2.22726669378058
H         3.92842698839969   -0.45226418921757   -2.13055427460107
H         3.84371958333184    1.19549479412621   -2.79681291582730
H         2.65705692277089    2.68919573398169   -1.87111750217119
H         3.96802743736652    3.21587220962514   -0.77343051256090
H         1.65816076021997    2.36583106437920    0.63149584938208
H         1.76759789593753    4.39259945217892    1.65865416748871
H         3.00523006685000    4.96487516091118    0.49600193089412
H         3.28468536425061    4.10670735631444    3.07681287628860
H         5.23079507149147    3.93852603792977    0.83635162905995
H         5.70739300615265    3.94251492689034    2.41500071371090
H         2.72876894608432   -0.37283868368975    0.69651396485738
H         1.41799192404976    0.99038767283749   -2.59029964246022
H         0.32715740443911    1.64560909737644   -1.30899325011844
H        -0.08462467390829    0.17093499285994   -2.12733015857327
H         1.10449241254247   -1.81840834277950    0.33297433176598
