39
 energy: -52.262647942158 gnorm: 0.117883730714 xtb: 6.4.1 (79825abcba525fcdf90b791dcacef51065a7a4e7)
C         3.37551846344163    1.52393066440202    3.61845351374313
C         3.50860734815056    2.04243511762186    2.18056198803017
N         4.65204410199081    1.39258713619138    1.56385478590403
C         4.74663305660825    1.23016865870335    0.20643966670989
N         5.91609840072821    1.11513489832960   -0.34977470184458
C         5.73812506323469    0.68993013417878   -1.73697402025578
C         4.27131561095732    0.31261357133745   -1.88860444355419
C         3.54912578809745    1.01868082038194   -0.74024958101965
C         3.18514792545619    2.41359609461210   -1.32783572420324
N         2.69182052830375    3.54675236189384   -0.51828854264321
C         3.54372744776863    4.07574191771261    0.54137867253629
C         3.47081923162236    3.58960399697591    2.01695604479152
N         4.74051548855589    4.11032220762640    2.57803456589658
N         2.62472278972641    0.14748527340289   -0.00205290242190
C         1.27686307708627   -0.06589210872640   -0.10907083248758
C         0.45705851245898    0.86893100125533   -0.96292014354405
N         0.63516350427176   -1.08583150753831    0.35428890342402
H         2.38786586769808    1.81146004368287    3.98873348503096
H         4.23058520730789    1.88015664514328    4.20033368632590
H         3.37666017036066    0.43084093635769    3.67296492859148
H         2.71400938634245    1.57754437772601    1.59198073474764
H         5.55905635799877    1.64731105946063    1.95042206603871
H         6.22608907018144   -0.27888086282544   -1.89856796998135
H         6.06918056857011    1.49776638657543   -2.39335982971576
H         4.14603605073286   -0.76959720537802   -1.76337611157265
H         3.71877624673829    0.62262766694184   -2.78472257087717
H         2.40162564982758    2.24762701691800   -2.07574211234371
H         4.10304502077649    2.76471822792281   -1.81616434953892
H         1.76869187210471    3.37015558617549   -0.12546391911984
H         3.36247206590813    5.15718369569937    0.47595827572703
H         4.58549877771628    3.96632546968778    0.21399283139372
H         2.65467801217520    4.03326985704958    2.60331292946520
H         4.94714032820059    3.74787872196878    3.51201452317192
H         4.88724159317331    5.11740347724635    2.60341310804497
H         3.06866980015654   -0.74051291237733    0.20929016228521
H        -0.60653508933457    0.66353239782195   -1.05089446451688
H         0.90304363475506    0.81883271958934   -1.96046718198251
H         0.57010255667438    1.84392888868025   -0.47814325589789
H         1.19190757260110   -1.86193769358604    0.71584126358342
