39
 energy: -52.268656085353 gnorm: 0.103280051241 xtb: 6.4.1 (79825abcba525fcdf90b791dcacef51065a7a4e7)
C         3.72465142500738    1.70485863249589    3.76912596203796
C         3.50523262263718    2.13327013807920    2.31227643823388
N         4.54891827400625    1.52132949560036    1.50833198116090
C         4.65125100426316    1.33045500017750    0.15518839132830
N         5.81125571825757    1.20092429635058   -0.41740853226911
C         5.55313216974983    0.68233939411145   -1.75951042222440
C         4.05140736229356    0.68382690874469   -2.00792526042646
C         3.39784023481949    1.22370048738466   -0.73505663780692
C         2.79389520939732    2.61745825984992   -1.07596085196856
N         2.41795273488569    3.53754847132754    0.01714617283755
C         3.49141261913404    4.13762890879388    0.80203936295307
C         3.62013577310931    3.68502709056584    2.28445503735247
N         4.96080892461621    4.08322989249280    2.77650704763113
N         2.53601941509250    0.21307133140144   -0.10709921093045
C         1.36878322487726   -0.38379507941834   -0.50082339154127
C         0.71503275359207    0.18395789186003   -1.73585347721524
N         0.80564848806999   -1.37398276053383    0.10676577732664
H         3.18628693326590    0.87345649385735    4.23191339328547
H         3.49791557698447    2.45282876002410    4.53447043647270
H         4.80129666297254    1.55208389589649    3.89287112225082
H         2.52354683268623    1.83436936962912    1.93692520555030
H         5.49761262728013    1.63925837516277    1.85913331500567
H         6.05872661225847   -0.29086299896233   -1.76773133228698
H         6.09607860917527    1.23468087055546   -2.52968413431975
H         3.71907560075427   -0.32170486614054   -2.29256312974688
H         3.79392252990102    1.35538760953781   -2.83686673892585
H         1.92018537210445    2.46552924574889   -1.71967317482766
H         3.53673975731624    3.15297144448584   -1.68068747158358
H         1.66312703690033    3.09063697060395    0.53499982490548
H         3.43934027538187    5.23472275909393    0.78406110071400
H         4.36802359905089    3.79645930449038    0.23670985689634
H         2.79867755627354    4.10513131072731    2.88065897325578
H         5.56974987202948    3.51628132469239    2.18141217133010
H         5.18133758505331    3.98114915664489    3.76510804819163
H         3.01183750337030   -0.19740183307146    0.69002345485124
H         0.46914184116794    1.24089969318793   -1.67609472519346
H        -0.20078890168902   -0.36229494042372   -1.97955657310421
H         1.36066674888007    0.08691721926187   -2.61457318066352
H         1.35397895950029   -1.63540239361352    0.92775198608630
