39
 energy: -52.258415658539 gnorm: 0.116879861932 xtb: 6.4.1 (79825abcba525fcdf90b791dcacef51065a7a4e7)
C         4.13569778073572    1.94337491319022    4.02549039875097
C         3.75740913073607    2.10528886018983    2.54739259861885
N         4.61188977455443    1.24311142100698    1.74952630187641
C         4.68074663625439    1.18817154746505    0.38199460937266
N         5.79602715042466    0.68785466484501   -0.06082449027056
C         5.54857458144037    0.16183820572988   -1.40204388067986
C         4.22579101125935    0.71251627222315   -1.91574304246482
C         3.55699463271294    1.29023693256620   -0.66764120028704
C         2.96125554921879    2.71467042751145   -0.86666418934870
N         2.03350960302012    3.22869846301459    0.16185140569956
C         2.51798249631930    4.01020745326650    1.29454715481705
C         3.77528701763509    3.59951483905720    2.11277155133407
N         4.99591891080893    4.05243618501945    1.40354298757807
N         2.46082537055308    0.46901425787081   -0.13618731458349
C         1.35666392170112   -0.01716035223414   -0.78284822681920
C         0.94807159416189    0.43458156711049   -2.16270835847489
N         0.65631490678111   -0.87344811010969   -0.11723608366318
H         3.63137645779604    2.67746580359843    4.65953189000297
H         5.21112042555645    2.13939553971060    4.06626621314548
H         3.95463815851644    0.94838180975212    4.44384919471160
H         2.71214013253749    1.78695601248198    2.54363633268318
H         5.50707497642022    1.00601610990315    2.17310512631123
H         5.56343405258117   -0.93282992130181   -1.46759618945914
H         6.40217810323306    0.50388188132399   -1.99145599474752
H         3.64876698832391   -0.05117449371844   -2.45088502910623
H         4.44566093183008    1.59194721937801   -2.53436620025232
H         2.28802597004874    2.58201692971833   -1.72105393908880
H         3.68670419329246    3.51186858320602   -1.07278557903605
H         1.31356244186581    2.59356124141660    0.50235237849079
H         1.66364361090429    4.18009426199171    1.96379538519738
H         2.75435576801084    4.98563185451163    0.85056983332127
H         3.67844439115676    4.18640652103527    3.03630819709370
H         5.19690313437917    3.70290477198462    0.46343087083729
H         5.84836194837280    3.99018622845266    1.95658106011350
H         2.85842315272649   -0.22166467679469    0.49244154343173
H         0.88386800117537   -0.36555734399450   -2.89538498887962
H         1.48323626149645    1.33403660112138   -2.48065816525042
H        -0.07025352562550    0.80028638442471   -1.99632804276528
H         1.05041975359483   -1.26742554831510    0.73861906333241
