39
 energy: -52.274215313794 gnorm: 0.102308180477 xtb: 6.4.1 (79825abcba525fcdf90b791dcacef51065a7a4e7)
C         3.61881616754073    1.35669178111649    3.58837959750406
C         3.59647287658672    1.93936766006157    2.16919632640573
N         4.77116982029602    1.49078406285576    1.44191534972755
C         4.87340389280078    1.34623746671472    0.08303452344649
N         5.97521604665371    1.27500158132537   -0.60339959578952
C         5.73109414254225    0.69821276631871   -1.92420037765946
C         4.23730400182014    0.41240549064533   -1.98580199825801
C         3.61608467036105    1.11426156088684   -0.77737633211383
C         3.10458194329887    2.51846289061946   -1.21339192982138
N         2.53915629416883    3.47379313733528   -0.23849723517317
C         3.38203304696933    4.12975280079974    0.75535671334264
C         3.38060239394896    3.48057695098776    2.16870131042918
N         4.40477434411700    4.21462787176171    2.94993508499807
N         2.60396558575481    0.29901130405884   -0.09223480281327
C         1.30715717664748   -0.08885141913101   -0.29609508802545
C         0.36734949784698    0.63253078535446   -1.22958405944345
N         0.81260705078222   -1.06275595759816    0.39215421102745
H         3.59785271132375    0.26362887377030    3.59185295435420
H         2.77476776683616    1.86939177097204    4.05884919421394
H         4.52474151438838    1.64087236205080    4.13276789177296
H         2.68257390392041    1.56345716440235    1.70291618007913
H         5.60783758608401    1.58549709474048    2.01463364978712
H         6.26335681588342   -0.25424566104842   -2.03526618113063
H         6.18692953844225    1.39483196998740   -2.63128966909657
H         4.05127787632622   -0.65824043186747   -1.83859853241893
H         3.82225626555866    0.77044183679226   -2.93658143348071
H         2.45529115391901    2.48844775780181   -2.09562626274287
H         4.03472404868829    2.98696513770195   -1.55926473443736
H         1.79732508456994    3.00005213534376    0.27426006584608
H         3.08346221120821    5.18360796709662    0.83838927635667
H         4.40249913687136    4.14785880540646    0.35191887707915
H         2.45824346299778    3.87856190561629    2.61322607304032
H         5.22562903284303    4.22876955722040    2.33970950414503
H         4.65413993534678    3.77397450671598    3.83312629809089
H         3.08944923616957   -0.25331258758964    0.60743623744548
H         0.34965214457904    1.69763280728706   -1.01416839331917
H        -0.62323604700544    0.24915632293557   -0.96828545191988
H         0.63467036017344    0.44145254370930   -2.27382403418344
H         1.45369735758718   -1.59528255198448    0.98244526277504
