39
 energy: -52.266315273460 gnorm: 0.125290210976 xtb: 6.4.1 (79825abcba525fcdf90b791dcacef51065a7a4e7)
C         4.40626851162224    1.55563927427912    3.60411701302271
C         3.86552945538421    1.97768189763217    2.23168382860208
N         4.93386855578403    1.79378441200118    1.26477585361632
C         4.87287666856803    1.21223824589865    0.02542656903780
N         5.99946599681279    0.91465975175887   -0.55120145986506
C         5.58839981700048    0.47351736653529   -1.88282210285009
C         4.07446002407112    0.35538457561133   -1.98732322502101
C         3.54821221161500    1.08778572403652   -0.75222817732723
C         3.08905810758237    2.53445960780950   -1.09840471185702
N         2.35782653580738    3.21662085366757   -0.01086706386576
C         3.09123244004893    4.06871410166544    0.91893014270579
C         3.35408061072537    3.44488649717237    2.31918877343578
N         4.10637186249854    4.52918486162003    2.99479225409983
N         2.51184339824989    0.31779927558099   -0.05115936089289
C         1.29585787344307   -0.12823954359035   -0.49403309402906
C         0.62395747761864    0.75488415276339   -1.51563714031310
N         0.57286378552600   -1.08347042892193   -0.01281538894014
H         3.63516967279740    1.65682476147829    4.37249590769875
H         5.26236929537764    2.17386981036821    3.88960444030372
H         4.70634684832716    0.50328744598672    3.58604574126093
H         3.10429932250844    1.27505620181082    1.88414531627440
H         5.90244825737221    1.80425297553553    1.57899477319229
H         6.08884308441055   -0.47685616441305   -2.10454920554768
H         6.00545288470242    1.20248432379470   -2.58118690902109
H         3.66053874408001   -0.65042838360700   -1.84744208132100
H         3.72168069722819    0.80013056432314   -2.92656969454730
H         2.48607646868652    2.44218405364096   -2.00874268541051
H         3.90864919049746    3.21409798459155   -1.36420314496169
H         1.65063257718407    2.61167244541137    0.40335299124796
H         2.48679024127718    4.96970276355848    1.09074027567900
H         4.09162840952837    4.25693008791445    0.50877943795093
H         2.39075597096144    3.28896209885138    2.82360279422541
H         5.07871393621826    4.27613029372948    3.18686500152736
H         3.75727905553334    4.61823697016052    3.94694205226184
H         2.83461358755486   -0.38428531112584    0.60701406025623
H         0.99548221656530    0.93222284981501   -2.52146007311286
H         0.49965286088965    1.69185548512868   -0.96505040849613
H        -0.37877235145688    0.34784582592755   -1.68074667688886
H         1.03911122298034   -1.53542864379644    0.77545612790949
