39
 energy: -52.263169936322 gnorm: 0.113366294371 xtb: 6.4.1 (79825abcba525fcdf90b791dcacef51065a7a4e7)
C         3.60087772222063    1.41943365823412    3.50215865832199
C         3.65968237475385    2.14378432902409    2.15088160903799
N         4.80938620405226    1.61769241914485    1.43569900732557
C         4.83967192628139    1.29413382045991    0.10442322877057
N         5.88271009771854    0.83820941480566   -0.52363779908609
C         5.60801353400528    0.66866942414731   -1.94932834255874
C         4.09100392419092    0.68872311435434   -2.07249176201424
C         3.55606808436938    1.23010188435164   -0.74600744486519
C         2.85115513755133    2.59646011559679   -0.99032051701521
N         2.31068806683558    3.52948816614202    0.01969714379330
C         3.30294438779136    4.22797764165828    0.82964146703433
C         3.47048017677137    3.68335294756604    2.27680765498122
N         4.72364759510622    4.20263463044504    2.87514125588207
N         2.71305773744073    0.24345191320026   -0.05731861222395
C         1.49371639684270   -0.30550475413071   -0.34982812194874
C         0.67228621867798    0.34827732824795   -1.43281189916012
N         0.90547314923214   -1.29287205410043    0.23824726131327
H         2.60195032139142    1.52253036102146    3.93430812938094
H         4.27549730717146    2.02871565029030    4.11066871723478
H         3.92306448984591    0.38089983234702    3.62650142677284
H         2.79566128490242    1.85794691864025    1.54614882723808
H         5.72213500188621    1.68081639323681    1.88279491239771
H         6.09269301928970   -0.26482534930182   -2.25995596752535
H         6.00150267230412    1.47533818316115   -2.57181633302097
H         3.76350908392903   -0.35369087048662   -2.16564474233863
H         3.77657940036964    1.30511574420002   -2.92433301604476
H         2.05856011735622    2.44502204648972   -1.73172222333793
H         3.68099018088871    3.11544767738757   -1.48661920772076
H         1.58095438096920    3.15544440757016    0.62405145352576
H         2.91975025233337    5.25585201483582    0.88696674140845
H         4.27053186072289    4.13575736205101    0.32002312418032
H         2.57566339377765    3.90829281302908    2.87299995774082
H         5.48949667789771    3.76248363940615    2.35927310110048
H         4.75450717270747    3.92689815267421    3.85463213704439
H         3.17531528745763   -0.30770795603986    0.65880732781744
H         1.00701625054495    0.53161596675381   -2.45040816522611
H         0.30037359772470    1.34296372158067   -1.17052839665904
H        -0.20837780422767   -0.30141504208221   -1.45999957354204
H         1.34329517760798   -1.63606186608976    1.09472697649299
