39
 energy: -52.253121239254 gnorm: 0.128627578921 xtb: 6.4.1 (79825abcba525fcdf90b791dcacef51065a7a4e7)
C         4.17809796104900    1.80276560899573    3.93489515447975
C         3.64789748258686    2.08515752341439    2.52307583067080
N         4.51270252704221    1.38382228135263    1.59016701859346
C         4.56917487722071    1.23193560136597    0.22941578934437
N         5.73148057914063    1.06255987963876   -0.32791147927871
C         5.53294217133816    0.73873818616973   -1.73947712054039
C         4.05589684294697    0.38127571201335   -1.82577441403974
C         3.34179068364239    1.12513177522221   -0.69637698352327
C         2.91389716582108    2.55880640328363   -1.12650511311098
N         2.42593245223683    3.40822331832653   -0.02053808896642
C         3.49350945132013    4.02609414798299    0.75855430449406
C         3.65638462072977    3.61729734141864    2.25030867986943
N         4.91973701717490    4.20275892173842    2.75948507108169
N         2.38577633268756    0.18502499410264   -0.09581661005557
C         1.17233009502618   -0.11136794452957   -0.65564519428463
C         0.84787589298803   -0.03538021632556   -2.12669508229049
N         0.19157427642467   -0.58565955027229    0.03711918820638
H         3.67162150024329    2.31603601544593    4.75664519491183
H         5.23868818383710    2.00001913429779    4.11616854518900
H         4.18178127276569    0.74192089191828    4.20399154356496
H         2.57534152201769    1.87695281730193    2.53762578763553
H         5.44945281254888    1.30383593141464    1.98143527403887
H         6.13819005635270   -0.14988338190096   -1.95590939315341
H         5.82470738700611    1.66955601967704   -2.23089416442315
H         3.86951245127727   -0.69137954071969   -1.69451574276050
H         3.66032984590084    0.64185155643853   -2.81575581029132
H         2.13983550444019    2.43491464771296   -1.89220494737607
H         3.76361328241133    3.08955704373805   -1.57435883431210
H         1.75085047973237    2.91949554288907    0.56518677740447
H         3.44205082508739    5.12272045329713    0.72097218413584
H         4.34616687330552    3.73334187521547    0.13268500320031
H         2.85138501723682    4.07722422293271    2.83953120494489
H         5.22857035901144    4.88740929813042    2.06504033321455
H         5.74902394502812    3.64094898288688    2.94124888832865
H         2.47207732254416    0.03671810452145    0.90460970889760
H         0.32143960313610   -0.92798617492763   -2.45422959931210
H         1.80540576005685    0.12204344166074   -2.63153863220055
H         0.30757855219443    0.87423458618048   -2.40792125646065
H         0.44477871562529   -0.83998940923726    0.99327227285367
