39
 energy: -52.272916511575 gnorm: 0.107907687533 xtb: 6.4.1 (79825abcba525fcdf90b791dcacef51065a7a4e7)
C         3.62902536353341    1.41933132774736    3.59144626556644
C         3.63286210554541    2.03288550134843    2.18516460622052
N         4.80729212870882    1.55750266850641    1.47466967639374
C         4.76165524455722    1.17531440518489    0.15946930772971
N         5.86698169925907    0.86792466889472   -0.45210353117785
C         5.60216299587014    0.70769872729746   -1.88073722970089
C         4.09280946044454    0.55598742872642   -2.00613706491204
C         3.51767142595353    1.21086794519170   -0.74949243778222
C         2.95137659480322    2.62703052123995   -1.06145347943978
N         2.45868991864937    3.54532355592114   -0.01418110098765
C         3.53982661661934    4.14543790547286    0.76007736929033
C         3.58668424684816    3.58823316044444    2.21138764486710
N         4.66181945156606    4.39405947291164    2.83813590782110
N         2.55998627126277    0.33536048507341   -0.06046213263934
C         1.31047102860285   -0.12668441309543   -0.37500103768615
C         0.54463680865895    0.21029738245479   -1.62998056933868
N         0.75167258653735   -0.98437220445053    0.41168373224925
H         4.04475341133094    0.41161686009013    3.50826098393755
H         2.60861309959822    1.24905501170538    3.94695351931872
H         4.18337026714466    2.01325763270860    4.32477512807762
H         2.72931006301769    1.70657616424610    1.66453697911547
H         5.73757097373506    1.63350635202042    1.88184833920258
H         6.27100602151526   -0.06967221596010   -2.26952976952193
H         5.88186421284472    1.68179456434315   -2.28809949939108
H         3.81242223136532   -0.49611794555430   -2.13657685928495
H         3.65628910390993    1.02545235550773   -2.89691697054974
H         2.11833949197857    2.55431346559075   -1.76967538216129
H         3.84093315091737    3.08163862849025   -1.51566409346883
H         1.77666069771506    3.03459078176773    0.54407717364229
H         3.42151563557836    5.22170082510809    0.94530777282149
H         4.49590188285538    3.94330612216449    0.26057383430346
H         2.62081993209163    3.83505943863735    2.67282366484240
H         5.53090896062990    3.90422787721945    2.61202509763976
H         4.55716540741648    4.57064224204544    3.83525744491836
H         3.04986490575546   -0.33893839127157    0.51887849693591
H         0.31088029451096    1.25860829927680   -1.79599721790274
H        -0.37673068130452   -0.37671904457818   -1.57515061803374
H         1.04621820843250   -0.26315312000759   -2.48008008277855
H         1.34830583769291   -1.28621893347377    1.18365665843644
