39
 energy: -52.274086408843 gnorm: 0.108799094192 xtb: 6.4.1 (79825abcba525fcdf90b791dcacef51065a7a4e7)
C         4.01560680791187    1.44491421157419    3.68481994302300
C         3.70624608485491    2.01796554648896    2.29557566540735
N         4.77348886188566    1.60886829962023    1.39907689177764
C         4.75232137596143    1.25392082590031    0.07564693919885
N         5.86545993591966    0.91642552961526   -0.50510760701347
C         5.57650851292552    0.53433026103476   -1.88616004085371
C         4.07116064347907    0.56083447876651   -2.11002351647733
C         3.50699211533008    1.17659601327481   -0.82886795246345
C         3.01728437531794    2.62997557315984   -1.09607610840847
N         2.35755026618016    3.17864292688521    0.10662783138437
C         3.24659506498069    4.05138918324398    0.86582694787088
C         3.52711395935875    3.56374307290320    2.31582167332903
N         4.61825354958957    4.39952440400997    2.87167156404947
N         2.56611487419201    0.27758547328312   -0.14698305926728
C         1.27549673632485   -0.12329338184435   -0.36449059650853
C         0.74129597308960    0.36408650424538   -1.68816836104097
N         0.49856855065161   -0.82944609902789    0.38683350381776
H         3.31033956947121    1.83437539941813    4.42384372780904
H         5.03003150367070    1.73497634906031    3.97365746279916
H         4.02977931183063    0.35064052222836    3.69831743162417
H         2.76667581850681    1.52306517602671    2.03824603630160
H         5.60455301284974    1.14132913930658    1.75646921955878
H         5.94804802663010   -0.49447369087373   -1.96576556258069
H         6.14330270141657    1.20540775704659   -2.53534324250618
H         3.75333362356093   -0.48656320277277   -2.17711559636002
H         3.77197595480875    1.03445036375456   -3.05374629867160
H         2.19192909414293    2.66312592161778   -1.81615011470429
H         3.87591335829202    3.18578730389313   -1.49371447325097
H         1.53834375930282    3.72771914499783   -0.14848025997845
H         2.77173958555632    5.03768960504546    0.95733332399848
H         4.20269296913743    4.28725229796209    0.38138258040110
H         2.61215144881478    3.68854261037803    2.91080819952119
H         5.50251022213869    4.05087537615624    2.49363498192434
H         4.60734576957390    4.32725111108256    3.88707438862458
H         2.87131612398970   -0.08316867401984    0.75135109603006
H         1.56086821772265    0.52316223928906   -2.38398131808817
H         0.19156034420108    1.29664966385322   -1.53123094200558
H         0.08046409164476   -0.39390717476347   -2.12078282482796
H         0.99330816478095   -1.06868582283161    1.24765982460340
