39
 energy: -52.264961725139 gnorm: 0.107303284681 xtb: 6.4.1 (79825abcba525fcdf90b791dcacef51065a7a4e7)
C         3.26667749267378    1.53915047807189    3.56223009609759
C         3.51453856428683    2.13408994476158    2.16985676911174
N         4.57694717462825    1.37543763099503    1.53282270813035
C         4.76912087850527    1.27505409708008    0.17971700077735
N         5.88750722915995    1.14782438020591   -0.47088345096838
C         5.52562419476513    0.95143086579171   -1.87347598247713
C         4.04368631414938    0.62884248890806   -2.00265185508926
C         3.49247199595330    1.14859723130134   -0.67418439822963
C         2.95917676477459    2.56213897258341   -1.04971327878942
N         2.53690980889520    3.59935909896823   -0.08605010214750
C         3.45189921629491    4.27703097215424    0.82610403676953
C         3.77223674704992    3.66801065713535    2.22089878728157
N         5.14159140102680    4.05240876722572    2.63945710751427
N         2.62527503076453    0.17727423961404    0.00621108724885
C         1.39452891353743   -0.31092801517769   -0.34110883474272
C         0.65239440215187    0.09675817687809   -1.58933187731695
N         0.75799634423124   -1.11310730947458    0.44507921649723
H         2.88035751437223    2.34776016989240    4.18844514863637
H         4.24680586520366    1.27992328049637    3.97304666844396
H         2.79936440061622    0.54975546572841    3.53912306295527
H         2.63153144765754    1.93538550739696    1.55768670256341
H         5.42091418266720    1.36394594322664    2.10253965552049
H         6.16024396072425    0.10606030632796   -2.16574742229331
H         5.72847585305589    1.88881907807241   -2.39615565196498
H         3.98252515188244   -0.46427395561359   -2.06520599919967
H         3.60916814721939    1.00530034317625   -2.93748319149661
H         2.06395289423610    2.38818046543861   -1.65727358131472
H         3.62748510181207    3.12810451529700   -1.71102534021884
H         1.69366103055024    3.27866285552398    0.38697161122607
H         3.01107051848310    5.27192760220677    0.97610541888823
H         4.45434667702612    4.37057058772209    0.38930845330151
H         3.00230311321044    4.10424673553649    2.87177555839002
H         5.74982703932646    3.56323764375389    1.97829246354713
H         5.36279621231095    3.89421867618408    3.62049208670447
H         3.13004155823062   -0.43314523061531    0.64095074943533
H        -0.15379114595598   -0.63172216842250   -1.56607935770447
H         1.17837033525438   -0.04724934307958   -2.53755326880006
H         0.29600005781723    1.12872165145031   -1.50906404114663
H         1.30193886765329   -1.33746336799650    1.27983413647950
