39
 energy: -52.270907005223 gnorm: 0.104344429702 xtb: 6.4.1 (79825abcba525fcdf90b791dcacef51065a7a4e7)
C         4.06440175642758    1.55802901790790    3.75941379649361
C         3.68512073625287    2.03641495230075    2.35179724694001
N         4.74564715660973    1.66617324263488    1.43077469773174
C         4.77487031127828    1.19080863419930    0.14583224582019
N         5.86145115320189    1.15705334907119   -0.56723087946145
C         5.58708460230452    0.53034298894670   -1.85903297814867
C         4.08005524673127    0.32442542888051   -1.91691230735270
C         3.50037944119216    1.06591210470633   -0.71151550263093
C         3.06376247558106    2.51749100908319   -1.06621300295999
N         2.38955309435589    3.39418292334841   -0.08660353918002
C         3.23316335605365    4.12576969212671    0.85231737775445
C         3.45709050460383    3.57460489512297    2.28934495748671
N         4.61198466271270    4.32708445311228    2.83531120088733
N         2.47100903096613    0.29100855062748   -0.00557075040512
C         1.26927712841103   -0.12499293306146   -0.51202093031606
C         0.66794063501869    0.61670508488385   -1.67962998760939
N         0.54768052862796   -1.04828581282680    0.02981446162527
H         5.09668201014668    1.20204189168451    3.81334607985754
H         3.55043663868648    0.63059875655941    4.02836283417897
H         3.92306185345045    2.30297911403242    4.54864781331895
H         2.80977531408293    1.52574017970864    1.94324018890806
H         5.71276381705415    1.83360178626848    1.70214678361596
H         6.12431332593376   -0.40017829111404   -2.07887761320230
H         5.95814691387005    1.11973561342851   -2.70044166701967
H         3.88381160889279   -0.75390416776656   -1.88154313102406
H         3.60558311117546    0.70290241405827   -2.83127960064444
H         2.33356784522348    2.60029134951848   -1.87909476555043
H         3.97784291501081    3.03236469485110   -1.38815821127788
H         1.59715559099532    2.92511645379504    0.34899601039591
H         2.80091390838203    5.12160129222143    1.02003589260691
H         4.19543402154344    4.25348808404902    0.34029771932210
H         2.66493179758898    3.92175593254900    2.96662704022762
H         5.47253118756564    3.90199836703008    2.48156105866439
H         4.54786048571173    4.12893153946725    3.83180947920106
H         2.88667137248950   -0.36385257363248    0.64916381032712
H         0.22684109533094    1.58600358948447   -1.46271749908077
H        -0.07623654396308   -0.08228284799135   -2.07222247417507
H         1.45611975454007    0.78502845687390   -2.42047368810992
H         0.95301831071947   -1.53649920085090    0.83004808697222
