39
 energy: -52.267658989935 gnorm: 0.102617822550 xtb: 6.4.1 (79825abcba525fcdf90b791dcacef51065a7a4e7)
C         3.65895911300030    1.40692896724836    3.62626756592198
C         3.54224323788484    2.05857133975640    2.24213203011363
N         4.64613777286408    1.47208479910536    1.50218056829371
C         4.75069280143310    1.43107830941584    0.13642461033431
N         5.87693754763743    1.25722215664770   -0.48935744247618
C         5.65175533638587    0.87383348113000   -1.88187373933574
C         4.19812772776418    0.42356085575414   -1.91520350274514
C         3.51980541878952    1.13004479213032   -0.74065369207931
C         2.95709968657061    2.53968699971715   -1.08677085694836
N         2.44362354634869    3.44702577227486   -0.03993740021864
C         3.31982516933498    4.15089548457777    0.89028197748669
C         3.57424271517956    3.61218235877748    2.32695666101678
N         4.81738311989281    4.25297205498734    2.81896848785116
N         2.52052049718146    0.29267105526857   -0.06340057570432
C         1.35232003520814   -0.28490423707308   -0.48223587157553
C         0.67082551010971    0.10699845500759   -1.76948483538932
N         0.71948393460851   -1.11293222216255    0.27976484668148
H         4.11183424483735    2.08401979359816    4.35543845005693
H         4.40449808810726    0.60884665858877    3.56416372926966
H         2.69993062475125    1.14898433752995    4.08620981948193
H         2.58247633947609    1.78348784243279    1.79815705731104
H         5.51687664488323    1.83837661263357    1.88248820306829
H         6.30908711508219    0.05499654778544   -2.19847637331413
H         5.80525957160728    1.69955186368640   -2.58020395374065
H         4.09580551735998   -0.65306361807238   -1.73363486363467
H         3.73202475507454    0.73684962851432   -2.85808967946221
H         2.22517305120812    2.44483232404757   -1.89677260890227
H         3.75423256848465    3.15570766952918   -1.52195401142279
H         1.48686185776595    3.45322118115844    0.30968067628513
H         2.91128550617136    5.13464358318051    1.15858158428522
H         4.29422529060643    4.33936684500781    0.42181223645352
H         2.78252974578915    3.99602006920126    2.98467960247892
H         5.59564136507620    3.97230432623596    2.21737278120671
H         5.04264572553660    3.93085113419293    3.75805324161303
H         2.87203739040679   -0.18590184902778    0.75982445589652
H         0.65223807614535    1.18238742038490   -1.92553770345394
H        -0.40135959678158   -0.10133743960740   -1.71008866488498
H         1.19557067959999   -0.34816922156207   -2.61557782961914
H         1.20527500771419   -1.31479622520434    1.15514067464255
