39
 energy: -52.260809914706 gnorm: 0.114773739022 xtb: 6.4.1 (79825abcba525fcdf90b791dcacef51065a7a4e7)
C         3.65310986472967    1.47127372442368    3.59466424086217
C         3.49642545545814    1.93238783801431    2.13970193081001
N         4.71004618941088    1.52382022120857    1.45393595732732
C         4.84903049885033    1.31919749734320    0.10608006857191
N         5.97651081174658    0.93744229404527   -0.41670808669356
C         5.75328877443822    0.85638694440741   -1.85906639700581
C         4.25317692053502    0.67566104999285   -2.04316449045553
C         3.60261873609985    1.28307144098233   -0.79952683331986
C         2.89113153196485    2.62261004250045   -1.15016658154170
N         2.21126727817300    3.40931099618645   -0.10056290027711
C         3.18751648309275    4.06278448096834    0.76452660967778
C         3.34164365698221    3.47982083067604    2.19818363658523
N         4.52847910352688    4.14859425317306    2.78320404320841
N         2.75738369117023    0.30655691316446   -0.09921689348338
C         1.45439337600976   -0.07513507746096   -0.27310192443894
C         0.72493595064265    0.12559895689814   -1.57795061902698
N         0.80756085545140   -0.71729999203590    0.64122234878755
H         4.62277357777661    1.50468676394760    4.09852324778266
H         3.45454403322922    0.39779378303427    3.66418435086389
H         2.89831784423484    1.98948693935271    4.19429914701296
H         2.57469282322139    1.63030519656373    1.63661920223011
H         5.50144582456836    1.18527751591212    1.99805470095161
H         6.36782847678591    0.04570237478317   -2.26888062333268
H         6.07770963624726    1.81049371761381   -2.28033929915282
H         4.04435582641506   -0.39707720519038   -2.13362798321440
H         3.96626747450225    1.16893346278094   -2.98060860527841
H         2.18270343781365    2.56340381800801   -1.98409768942098
H         3.73491839101815    3.25734679798364   -1.44919778962451
H         1.54358638578072    2.88080675527977    0.45849846876868
H         3.14778514720256    5.15732318572628    0.68052600617129
H         4.19699698729471    3.81086057869749    0.41534984067152
H         2.50560097899507    3.83601306538560    2.81535461306326
H         5.41111859308730    4.09656129597671    2.26879392794417
H         4.73565258565731    3.60085879085576    3.61594068672043
H         3.24134947403460   -0.23568548076045    0.60933508709237
H         0.01522710266205    0.94480841635377   -1.49814691105658
H         0.08576805478054   -0.74066743184814   -1.77175360956673
H         1.41072408452307    0.40109376130013   -2.38554315724640
H         1.23561855128905   -0.86014011527679    1.55740365479403
