39
 energy: -52.263025351511 gnorm: 0.115664720165 xtb: 6.4.1 (79825abcba525fcdf90b791dcacef51065a7a4e7)
C         3.90756347138026    1.41163471507293    3.67457046855387
C         3.67732996855336    1.99853237688932    2.27577269160866
N         4.77642637816041    1.50620000235088    1.46356971846521
C         4.71838343816253    1.30164317629641    0.10980086056810
N         5.83700349026756    1.12279879685132   -0.52813348674092
C         5.51757796600344    0.83457838087500   -1.92516314650630
C         4.07863778279242    0.34127397877205   -1.97985736584651
C         3.49853683274162    1.15181847146366   -0.81998302796470
C         3.01581372993297    2.56549837081996   -1.25817654065009
N         2.46714386525249    3.26617805918175   -0.07885848551602
C         3.39351385618500    4.02366129628933    0.75572389807765
C         3.54825663069911    3.54870781272904    2.22862855723674
N         4.69008293551336    4.19269932421252    2.92115491972959
N         2.48393487779742    0.47070900855369   -0.00444044893393
C         1.24032124647649   -0.03540022009002   -0.27087454963318
C         0.74374912951961    0.36341467867310   -1.63813283930150
N         0.52486264713857   -0.87052730312166    0.40546759971729
H         3.04345025694309    1.62731915027991    4.30862616466498
H         4.74517931367140    1.82407255925707    4.24458392737915
H         3.96115386461507    0.31914721301442    3.63692638290300
H         2.74282379223048    1.50465140490823    1.99879436578292
H         5.71579602598413    1.74912758769462    1.77269851172724
H         6.17067001017307    0.08192617217804   -2.38320425119810
H         5.60839137361197    1.79062431000927   -2.44551744499939
H         3.96258177916597   -0.74043233870495   -1.84201794247505
H         3.52984811642536    0.59452362926444   -2.89589813754163
H         2.36010372942920    2.54476464829851   -2.13591873344915
H         3.98739195778196    2.99676344224654   -1.53081709681772
H         1.47772792676637    3.50652418327723   -0.04797216377972
H         3.05066602551939    5.06430583638611    0.83423483826652
H         4.42425161125947    3.90055850974788    0.39954088442416
H         2.64482294766431    3.78856648152809    2.80570366684628
H         5.54546117810378    3.81077714895630    2.51025203686100
H         4.50844663465658    3.98693145220930    3.90148809912172
H         2.90254478939409    0.00248834261085    0.79294951819706
H         1.61784134924553    0.17685976704150   -2.25645272724086
H         0.50707063586224    1.43079637620203   -1.60360369457382
H        -0.09798622156892   -0.25187372266887   -1.97176474043999
H         0.89078738879514   -1.19353533517226    1.30256835858777
