39
 energy: -52.269647954435 gnorm: 0.122486501292 xtb: 6.4.1 (79825abcba525fcdf90b791dcacef51065a7a4e7)
C         3.95847908149798    1.40536185617149    3.71142220560631
C         3.70963747827397    2.09502805592629    2.36363515066734
N         4.69075659799330    1.47784368922380    1.48809731641010
C         4.65318474121852    1.37458901987721    0.12214363697262
N         5.77491203889030    1.21728649384505   -0.51601007677964
C         5.49039381798048    0.97047270593144   -1.92842923687849
C         4.00628157493455    0.63857633017357   -1.99281236644625
C         3.37392578335124    1.20305785712304   -0.71990437867843
C         2.78029402899772    2.58662065179310   -1.11598686782131
N         2.43324759780998    3.59424942783528   -0.09274460454215
C         3.54403568103543    3.99251215170531    0.76516366812938
C         3.59601837788278    3.64488636965752    2.28023079156130
N         4.65650047028856    4.33876445078293    3.04964360508268
N         2.47425367006582    0.30386361171128    0.01526686115244
C         1.32733607218487   -0.29943828570682   -0.42554536925450
C         0.68548411279668    0.07172456183712   -1.73905084491355
N         0.78605581606106   -1.27969417195535    0.21700506990988
H         3.36315396439731    1.86184826782923    4.50668707363779
H         5.00159392847682    1.56895440679208    3.99737589800289
H         3.78622518306396    0.32491898305888    3.68331985063265
H         2.79263775683612    1.74422200358017    1.88406885040132
H         5.69051518567508    1.58394632834608    1.65000706803659
H         6.11804181649067    0.15220876662378   -2.30168295392103
H         5.76978831160922    1.85419807938229   -2.50636320389256
H         3.90725902752923   -0.45245113701850   -1.94371175971396
H         3.64418738282322    0.87318413681432   -3.00191253224481
H         1.90779344875573    2.52149943238476   -1.77577381519318
H         3.51015429057284    3.14752480587095   -1.71346256517503
H         1.61904777545127    3.24350573984006    0.40897408334011
H         3.47713073069558    5.07934314061221    0.90998008304834
H         4.48008768017723    3.75458893371554    0.24397258002770
H         2.61951300768846    3.92293376912638    2.69959601363947
H         5.52920191830764    4.26096257422379    2.52170732567549
H         4.70349475053191    4.03102490247956    4.01890786804619
H         3.08106302857725   -0.17842752881868    0.67060897032781
H         1.37032282843323   -0.19779496396829   -2.53874740322123
H         0.45309965077683    1.14001933987225   -1.77449643255098
H        -0.22060576761555   -0.54122279468385   -1.78034414231770
H         1.21272173596017   -1.58949764734989    1.09164950196264
