39
 energy: -52.257234048270 gnorm: 0.121499526270 xtb: 6.4.1 (79825abcba525fcdf90b791dcacef51065a7a4e7)
C         3.73750051522097    1.61550733153224    3.83892609371410
C         3.56398297447904    2.06240818454003    2.38144098186871
N         4.51441338063009    1.29038162390512    1.59994574256943
C         4.63678412312790    1.29957342889338    0.23508547746279
N         5.81584108165081    1.06580326842376   -0.26032604596877
C         5.65260324788169    0.70723924715943   -1.66801237485521
C         4.16748081159535    0.49962482247859   -1.92915818695245
C         3.45284226282873    1.14028651936744   -0.73850613569654
C         2.90189184116959    2.52479978148194   -1.18917525780356
N         2.49159511252066    3.43122730524183   -0.09700885528647
C         3.58042547302943    3.99376058829392    0.69449270640058
C         3.78522151016922    3.58994735323105    2.18243347612671
N         5.07364432103631    4.24754772732504    2.50741585966528
N         2.43509023410765    0.29269398921900   -0.10273524114358
C         1.15675089582949   -0.06154231710202   -0.44048325822482
C         0.59479492527725    0.13381247437429   -1.82651154159075
N         0.51482021616045   -0.89767297090761    0.30488074689532
H         3.40693151245122    2.48238017579906    4.41728036111919
H         4.80370190025990    1.38072536206150    3.90757488578023
H         3.12847820610408    0.73524732908203    4.06707540207096
H         2.57990432567168    1.83529483097328    1.96437270671633
H         5.41417945276298    0.93837906414670    1.92166764545719
H         6.23252151357358   -0.19909611463382   -1.88030282852114
H         6.22484813407386    1.50155570315404   -2.15240544396507
H         3.97910782130131   -0.57727995752732   -2.01488432888479
H         3.97935880528433    1.05117041259637   -2.85912794575794
H         2.05045178316368    2.56577870512456   -1.87778792360015
H         3.72517761232130    3.02865063707736   -1.71130697519934
H         1.72016678448649    2.99094077347975    0.40169970806868
H         3.38788235961723    5.07451927583849    0.65528209419305
H         4.54402450854745    3.98541711553204    0.16928014037851
H         2.94087352129430    4.07696068547677    2.68902480715761
H         5.44429836766117    3.95382334028643    3.41445457242198
H         4.92052323315607    5.25294986131783    2.46152701427460
H         2.76508300422757   -0.19224292735309    0.72565872655061
H        -0.19920150593658   -0.59064178948304   -1.98743111692495
H         1.36046580810569   -0.00261986438390   -2.59569745555436
H         0.21057173175393    1.14776180680970   -1.97713607165899
H         0.77724961156702   -1.02124908926931    1.28410729549508
