39
 energy: -52.268962420238 gnorm: 0.119117475640 xtb: 6.4.1 (79825abcba525fcdf90b791dcacef51065a7a4e7)
C         3.38963692890367    1.53951442671864    3.73670841693541
C         3.48773454338997    2.13965764431972    2.32805781434041
N         4.55362883005055    1.46055182181171    1.61198351108959
C         4.70236814349657    1.34917042707005    0.25427463022306
N         5.81864878274433    1.32019454437562   -0.41155890069810
C         5.47667357342132    1.02770825356720   -1.80235013961046
C         4.02750607547387    0.56896288567851   -1.88207338229773
C         3.44760638380008    1.23409844811186   -0.63302613413075
C         2.84904262230511    2.57752423127962   -1.14337366891403
N         2.51208316472592    3.53042831599116   -0.06577734052538
C         3.67602922462622    4.01446791822436    0.66866476450535
C         3.69295016016017    3.67581882982817    2.18655960676980
N         4.93644165714200    4.21511413367795    2.78737123203061
N         2.50321337265335    0.38381845202516    0.10425450677057
C         1.48033369495300   -0.32506271151374   -0.46575712533365
C         0.72700405036632    0.06790495605175   -1.71199277841233
N         1.04851005561295   -1.44625433087974    0.00669889723253
H         2.47130052230710    1.99766087042309    4.11353481032581
H         4.25170899211170    1.90676188530837    4.30113882132486
H         3.33635175253845    0.45111613786328    3.63488600405909
H         2.55963897666673    1.95382782213125    1.78212457624518
H         5.45528538281643    1.36257237008738    2.07502265256029
H         6.26354120107833    0.35772061706054   -2.16946336870247
H         5.63092326080650    1.90413326312434   -2.43569501150994
H         3.82837363165480   -0.49884672332578   -1.73145406285834
H         3.47871722823602    0.96012459655766   -2.74824859754135
H         1.92617228655612    2.41163989267917   -1.71047999717850
H         3.61296697834452    3.10022591343075   -1.73285582478664
H         1.64862748513786    3.35854798127390    0.44663417841522
H         3.64201379822338    5.10797848802196    0.57003795211286
H         4.56548108772715    3.67989930112513    0.11968372911453
H         2.79201249781305    4.06340032459094    2.68136481878446
H         5.71577923626347    3.95167860032893    2.17941373207620
H         5.06884884824920    3.92428371239374    3.75394833955008
H         2.99171133202509   -0.21960802245733    0.75812136118588
H         1.39866565793618   -0.22276006400175   -2.51545028234363
H         0.38375187895615    1.10292517727959   -1.62583158234990
H        -0.14666574885811   -0.58350115297609   -1.81581779009906
H         1.49649686401669   -1.86398598176591    0.82390937930348
