39
 energy: -52.267119747941 gnorm: 0.117647139641 xtb: 6.4.1 (79825abcba525fcdf90b791dcacef51065a7a4e7)
C         4.02391938672729    1.53622335370422    3.57047186742961
C         3.68417223192689    2.09794874300084    2.18370295492207
N         4.85808603144574    1.94741693660033    1.34147712605573
C         4.78118744462874    1.33355575218245    0.11870826938159
N         5.79693461912635    0.66447212807178   -0.34046615117939
C         5.39952621953866    0.14162272651533   -1.64641048777200
C         4.00889053260507    0.63645032730551   -2.01811946784792
C         3.50136595686480    1.30415229000146   -0.73929154084223
C         2.99540164125959    2.74932373250017   -1.02037087742530
N         2.27315996618379    3.51533517849593    0.01614980255244
C         3.17612788969396    4.25611072979741    0.89043264320445
C         3.32538587988335    3.60808033512202    2.29640310669414
N         4.36005659318468    4.41949316313007    2.98134900722647
N         2.63887113419483    0.35324640848327   -0.02492633978456
C         1.54186459993313   -0.26120670090214   -0.56597404973635
C         0.59112902678739    0.50205071220303   -1.45399005464117
N         1.21558313569270   -1.47968667761937   -0.29101234973230
H         4.86381713778865    1.93740285437582    4.14393923686998
H         4.13289561586255    0.44805487513684    3.54528925431423
H         3.14925430546010    1.57512719997491    4.22717989776841
H         2.86205376790841    1.53352308786749    1.73706874348947
H         5.71591912402187    1.65883063982668    1.80819985340798
H         5.41870945516709   -0.95460961626297   -1.61952418406823
H         6.12399901076143    0.57443750909500   -2.33984399312939
H         3.39204346751384   -0.23135744693650   -2.28073444422632
H         4.04826903964422    1.22202303873882   -2.94547598172168
H         2.36277391868958    2.67833105908936   -1.91231205214741
H         3.90257113519142    3.28160921257275   -1.33342415020088
H         1.79196793836094    2.86105165768712    0.63099241214647
H         2.72015053960187    5.23020117546460    1.11377570468583
H         4.09243850659444    4.37822026205255    0.29890490026484
H         2.42315378457793    3.81449483972094    2.88810453925192
H         5.05549434949080    4.59914108222031    2.25301486767989
H         4.64206061804001    4.11197126786189    3.90994435432638
H         3.15184524925901   -0.30479733644263    0.55311484178437
H         0.39270190199365    1.51180389584342   -1.10444090690679
H        -0.26814185021488   -0.16435315898715   -1.57261595240631
H         1.05821614730003    0.52987398925091   -2.44366876846381
H         1.92786578318887   -2.03632955386354    0.18420025726540
