39
 energy: -52.267483839686 gnorm: 0.098574565972 xtb: 6.4.1 (79825abcba525fcdf90b791dcacef51065a7a4e7)
C         3.70840140986940    1.71298204450937    3.89603756156299
C         3.59371724859005    2.05327895641921    2.40434821201068
N         4.46101846144725    1.19820965964693    1.61268990165487
C         4.63907750278994    1.26622358192135    0.25564468690320
N         5.80445893138194    1.33779196229587   -0.31621234616086
C         5.60465987220579    1.18221339171342   -1.75588980822075
C         4.18911585390634    0.63933028784936   -1.89154604909670
C         3.41877919678493    1.16680491436809   -0.68028226480891
C         2.82277925260721    2.53434791626622   -1.12540721386979
N         2.36635044747657    3.39679337360223   -0.01606402969664
C         3.47288576612143    4.04367985978837    0.68077701443623
C         3.79178544717387    3.57195749083917    2.12810395753274
N         5.15705414011752    4.06350980233060    2.43224679912476
N         2.44171951573844    0.22512980314632   -0.11721983321313
C         1.20274295881116   -0.21630781840193   -0.49640114960764
C         0.73072087768745   -0.04561069706589   -1.91875485639643
N         0.43845619515854   -0.94432179201885    0.24698190481622
H         3.44258372284233    2.63612300959014    4.41794729282486
H         4.72654706152821    1.38767680918093    4.12879614445768
H         2.93957151819511    0.99910341070092    4.20763962440992
H         2.56299316702223    1.77552649495901    2.17111303481096
H         5.36241117154605    1.09181124315510    2.07438279660537
H         6.36572099561072    0.48139838435894   -2.11984106185812
H         5.75571852893044    2.12913140028678   -2.27892619106046
H         4.26396811345057   -0.45232140924814   -1.81908239174471
H         3.72792088144195    1.10936721854709   -2.76949859421875
H         2.09923332625249    2.36283148968122   -1.93031731237344
H         3.71958562764651    3.05138129123554   -1.48968939026146
H         1.79136073297321    2.98039232270298    0.71445710076333
H         3.16817438142202    5.09767104480501    0.73465854121098
H         4.41319348968874    4.02203772142799    0.11527373542091
H         3.11264256963915    4.08504812318385    2.82254131465952
H         5.89772968367533    3.56154593528031    1.93645482599434
H         5.36180375042777    3.85931029939723    3.40834385657214
H         2.76551562830604   -0.08428248622840    0.79366749612754
H         0.72128217327494   -1.02898469883764   -2.38140581442527
H         1.40766587623994    0.63714573025155   -2.44038862425822
H        -0.29793109115684    0.32478886759263   -1.86318728337225
H         0.87340484301140   -1.28451269825140    1.10611792564634
