39
 energy: -52.264584016358 gnorm: 0.121989604643 xtb: 6.4.1 (79825abcba525fcdf90b791dcacef51065a7a4e7)
C         3.46273812133711    1.33107236087597    3.53836110955361
C         3.50302799493100    2.05039140959976    2.18372152788466
N         4.65650620791242    1.56302841848500    1.44748575523650
C         4.74346214368764    1.34616083057371    0.09718587724466
N         5.86591544122153    1.14926165574489   -0.52858220814619
C         5.60276381892784    0.85986607508542   -1.93705548547312
C         4.11473052295936    0.55509296264552   -2.03584718375821
C         3.48471911973437    1.12392672632196   -0.76371441986213
C         2.98131192169684    2.54575255665758   -1.14909542112913
N         2.57597359321600    3.53228540214045   -0.12672782988660
C         3.60140505489998    4.12290536485599    0.72657654071765
C         3.59336407795631    3.60399509737896    2.19274220747040
N         4.80535580929560    4.18172165216635    2.82154521203848
N         2.61766606446467    0.22993574647857    0.01566743366372
C         1.31583554676316   -0.15098162741041   -0.16831035754896
C         0.63427690466756    0.25272707321683   -1.45187162797223
N         0.61987848655474   -0.94175399741494    0.57806743272069
H         2.57898775503593    1.64629502977312    4.09948320903213
H         4.44058967031309    1.48100536599308    4.00520912050084
H         3.36191607201796    0.26781386429368    3.29933341757230
H         2.57219091475703    1.81156513933971    1.66368157232171
H         5.50015794858380    1.43606628856767    2.00347327905635
H         6.16615067660267   -0.07473195148026   -2.04631665143579
H         6.15622496294647    1.61564486206779   -2.49876597467761
H         4.00484639390840   -0.52441714893872   -2.19440524355348
H         3.59848164255425    1.01132784757621   -2.89011471123589
H         2.11189481236850    2.50946951325423   -1.81513918183534
H         3.70566630965768    3.01284543135785   -1.82837566271366
H         1.79987049731837    3.09663176318402    0.36878606684451
H         3.44882353723438    5.20595874334492    0.62477318185645
H         4.60538168583088    4.09791116142475    0.28403030668450
H         2.71775040295096    4.11934360912854    2.61042257781492
H         5.69721039948836    3.73468983875735    2.59541336431718
H         4.75555692656435    4.15218131475397    3.83792739655438
H         3.07565326072817   -0.30329886296354    0.74792708126343
H        -0.20192091550492   -0.41880018578647   -1.62789370348059
H         1.36854790476974    0.13016422767088   -2.25333099104466
H         0.44078630983498    1.32667884880136   -1.36470831339988
H         1.03416317930977   -1.31897679896579    1.43193863588485
