39
 energy: -52.262604597999 gnorm: 0.116961062451 xtb: 6.4.1 (79825abcba525fcdf90b791dcacef51065a7a4e7)
C         3.60419615090040    1.40993764177364    3.63987704670129
C         3.64773455831299    1.97549928730495    2.21427683243546
N         4.78602864459836    1.44884334403357    1.48147547245114
C         4.81049440130350    1.22507492664337    0.12972412145926
N         5.96693704878850    1.02274903040243   -0.42881056680970
C         5.74000306763487    0.69439600277164   -1.83503985140314
C         4.27163518023462    0.33255094169917   -2.00782131828959
C         3.64213567942733    1.13971134510902   -0.87158612441386
C         3.05060721739219    2.53155695140513   -1.24089066790337
N         2.31213637776762    3.24258324892746   -0.17699025061098
C         2.88382647575113    4.03203233774238    0.90855592420996
C         3.51974290565147    3.52634556856124    2.23477816244913
N         4.81448306693375    4.21446997252486    2.45436378875524
N         2.69566196630833    0.30806925263444   -0.11594343709924
C         1.35501013326026    0.05606431863846   -0.22932216025774
C         0.61143056643012    0.65433892035390   -1.39730732650735
N         0.71183376790489   -0.76444908379938    0.53214937053865
H         2.60930996173350    1.63430793684073    4.03370123263684
H         4.30393746602579    1.90928432333845    4.31636474000623
H         3.67615857152692    0.32303127731134    3.74605571470042
H         2.71464016762816    1.58512107145776    1.80090423533884
H         5.66135758180247    1.78900424305485    1.87527690673206
H         6.47125789893831   -0.09111060262651   -2.06100879140711
H         5.94381660025156    1.57139688811224   -2.45339976334329
H         4.14271219550226   -0.74558274221717   -1.85431599484420
H         3.97850124082102    0.53419734875914   -3.04601560938331
H         2.41871619072138    2.53002845572356   -2.13617175740212
H         3.91056539761933    3.11641802457221   -1.59117072413911
H         1.49161813274502    2.71295070342979    0.11267039909610
H         1.99990076961332    4.64843569101733    1.12156274281958
H         3.63702213533279    4.71591054017385    0.49691548914508
H         3.00344788371427    3.90590137652446    3.12703211215235
H         5.55921011145777    3.70765636687773    1.96969971776627
H         5.03302413418468    4.17747118104245    3.44797145490977
H         3.04035370622849   -0.28929115935517    0.62880064704098
H         0.40292138313150    1.70170436162782   -1.19554267084823
H        -0.36020193920825    0.15561005984837   -1.45823725914230
H         1.12519512707107    0.61503963166729   -2.36317999010388
H         1.36716335355271   -1.15359335062980    1.21195431278071
