39
 energy: -52.259272765019 gnorm: 0.123869535581 xtb: 6.4.1 (79825abcba525fcdf90b791dcacef51065a7a4e7)
C         3.53646447265974    1.40557081491435    3.58519450548632
C         3.54532463198726    2.00276284179323    2.17190942357902
N         4.70191406403389    1.53331014086452    1.42894724684824
C         4.88168763561714    1.23501526225721    0.10357777382631
N         6.00398393361874    1.06007381758930   -0.52895907676779
C         5.68454472583580    0.71936880977434   -1.91412124607015
C         4.20196014305021    0.37521673375503   -1.93391624076221
C         3.58571082882108    1.05576016412663   -0.71084411792718
C         3.12838317457386    2.50033902851675   -1.06801259441062
N         2.34077708448398    3.22969555598091   -0.05287841231538
C         3.03558737321441    4.17298464930043    0.81655491608020
C         3.53456885578730    3.55889354202548    2.15554104493043
N         4.77252566828167    4.24149829176216    2.60230587763409
N         2.69228425850084    0.12345283102020   -0.01010954119516
C         1.36535889326369   -0.05263380242181   -0.29641557977233
C         0.68841679635516    0.72871870882321   -1.39471885349209
N         0.56405896421065   -0.74550067868127    0.44156199256227
H         2.57175128480453    1.66734743432433    4.02795800302073
H         4.45015922343893    1.65504095126883    4.13250353185157
H         3.67804882786026    0.32776120753599    3.45831554267155
H         2.64736775058698    1.56691778447866    1.72733128499482
H         5.56651477427976    1.59943002626463    1.96287938679971
H         6.33441075095011   -0.11995042271942   -2.18986314531897
H         6.00346651427178    1.57934189360035   -2.50722720268781
H         4.15343545027138   -0.71994495783510   -1.90521972626433
H         3.70480271204328    0.62534823644246   -2.87980465969681
H         2.41948915592783    2.39516889645107   -1.89700317092564
H         3.96518874058608    3.12482611447097   -1.40573880391844
H         1.75074353682539    2.62346093589049    0.51457565939998
H         2.26188023876860    4.82848984309019    1.23885797504612
H         3.71463586501631    4.77779260751356    0.20211091844779
H         2.90476189389992    3.90880225319187    2.98478610250661
H         5.40973940549841    4.36370111389184    1.81148175944081
H         5.33527178146476    3.81604245283867    3.33626053645511
H         3.24879175391125   -0.58196022207816    0.46210592128125
H         1.32709202954456    0.77606261298771   -2.27279170099781
H         0.44234864334044    1.68344420149570   -0.92094426459834
H        -0.19209346104051    0.16325171481582   -1.71621105179171
H         1.01984385882164   -1.27615755501153    1.18566433313614
