39
 energy: -52.261453827832 gnorm: 0.120291292165 xtb: 6.4.1 (79825abcba525fcdf90b791dcacef51065a7a4e7)
C         4.16678948446607    1.52847715474949    3.82330257645085
C         3.82271816813135    1.99702061367848    2.40338232915130
N         4.82883138525577    1.48812012590504    1.48750338208482
C         4.80524369120478    1.34271942186603    0.12507728471933
N         5.89534323824623    1.07207008671990   -0.52966563392894
C         5.61600079607793    0.71229675817312   -1.91866761345354
C         4.10811465389473    0.53309781751516   -2.02381830038412
C         3.54050389774197    1.09711101043455   -0.72054735761656
C         2.91439108098357    2.47754603867527   -1.07538242778576
N         2.28925543258055    3.16274575719189    0.07461257310875
C         3.17460696125432    3.97634489128198    0.90085654371921
C         3.50773228127994    3.52012766839982    2.34994855194256
N         4.50772188787077    4.52578204676540    2.78211194323116
N         2.44915763774109    0.28380075733755   -0.16744092490010
C         1.19928373755586   -0.13280889903547   -0.53887087382406
C         0.70385505957034    0.47187094945315   -1.82881085011924
N         0.53531751160092   -0.95426833324977    0.20349711418696
H         3.62663584599192    1.96050791485771    4.66995570257635
H         5.19848161713685    1.85741791073822    3.97831852429853
H         4.18977478999350    0.44333075916868    3.68277880859108
H         2.89816138303983    1.49587513691151    2.10675938835678
H         5.82088623999498    1.50700769531056    1.71654527924490
H         6.19726361638583   -0.16483344945775   -2.22784774489975
H         5.99019208089054    1.57191151152045   -2.47909856357989
H         3.92916115777685   -0.54722740261898   -2.08238737088617
H         3.64817572180481    0.92046946923380   -2.94187906345006
H         2.17936354595941    2.32704663983158   -1.87406967685336
H         3.67457825092240    3.15434170385725   -1.48568692753812
H         1.68517557940871    2.54472697623723    0.61387544935976
H         2.79137408397084    5.00115557615991    0.99855652546453
H         4.13285805583349    4.09550399249140    0.37932331718075
H         2.52150548990779    3.60719620814658    2.82588559847980
H         5.42466414807833    4.16451217174125    2.50810713653835
H         4.52730589328836    4.67986448995093    3.78822345342249
H         2.69383508357783   -0.17013679696549    0.70684121952864
H         1.45003713874576    0.43148300166293   -2.61794996539822
H         0.31514683234213    1.48336229704271   -1.67946618410840
H        -0.18272540441147   -0.10119530477825   -2.11860149788420
H         0.88677050683850   -1.41829425687059    1.04265479509600
