39
 energy: -52.263331410089 gnorm: 0.113504595258 xtb: 6.4.1 (79825abcba525fcdf90b791dcacef51065a7a4e7)
C         3.83479949709135    1.39181523479258    3.63648462461553
C         3.72658612999286    2.02244795409875    2.24196543477816
N         4.84861518123833    1.63208130571858    1.40605729417396
C         4.87204962977453    1.35499917187614    0.06420078031348
N         5.92287063913680    0.94946074312665   -0.58508354824667
C         5.57126360042999    0.46253126602068   -1.91777545131305
C         4.05404561843082    0.39940074690257   -2.02243519925843
C         3.59354859012672    1.14829119733478   -0.77107052824386
C         2.99347858389917    2.54522063274084   -1.10577955688168
N         2.36021174594109    3.33473729432426   -0.02948115650423
C         3.23785491835478    4.12352648322696    0.82843727548593
C         3.45112342512198    3.55402364601335    2.25992507421475
N         4.52186583828534    4.32143727453694    2.94012514093280
N         2.63024280748374    0.37366846155421    0.02293106310903
C         1.39701325488649   -0.08095968409014   -0.35938646475939
C         0.49958859768859    0.63712491064197   -1.33612385183649
N         0.87909711392228   -1.18241037718392    0.07110886025799
H         3.26747626127451    1.95335375970969    4.38351666794108
H         4.88116398146474    1.42837721394084    3.95335242636264
H         3.57200598682327    0.33605732756102    3.51760333864765
H         2.81043592637109    1.61610202515885    1.80666211001695
H         5.78033812734449    1.97725435476778    1.62907674238442
H         6.13972529163186   -0.44696585978105   -2.14686603916569
H         5.96781167567287    1.10092996400610   -2.71038898351423
H         3.73857974975431   -0.64678802526680   -2.11478015627626
H         3.76299267980201    0.98222475353263   -2.90563423800555
H         2.31110921357590    2.46386195006621   -1.95934247836725
H         3.77139202688452    3.11578947110298   -1.62883648154637
H         1.62590432605130    2.94777014758006    0.56103824061386
H         2.73468730083875    5.09597316856397    0.91686493148997
H         4.16248441539442    4.31446903913609    0.26893554950763
H         2.53801052111473    3.78359118268326    2.82584365988042
H         5.49703199920255    4.01912756985411    2.87658413814768
H         4.25839309066900    4.82319600363444    3.78582342504613
H         3.08488286675047   -0.35468837353682    0.56431295784077
H         1.07204034866925    0.78897231477152   -2.24738714202197
H         0.12888250396944    1.60096152305174   -0.97541811002958
H        -0.40728807201914    0.04283774058437   -1.48714017965890
H         1.58353709878476   -1.67961308252471    0.61844665784678
