39
 energy: -52.270317442246 gnorm: 0.107714006538 xtb: 6.4.1 (79825abcba525fcdf90b791dcacef51065a7a4e7)
C         3.78784213785636    1.78174810642749    3.85378328340463
C         3.63057785678801    2.07927899165912    2.35684144377541
N         4.62566961703404    1.29203083063619    1.64965654319439
C         4.74828804536559    1.23036644609290    0.28618126664884
N         5.92066840710574    1.11919600991148   -0.26465607960851
C         5.72984232796720    0.65844039841411   -1.63873221107269
C         4.23638813251378    0.52221067481805   -1.89935752146288
C         3.54924964421324    1.13251549599449   -0.67699232593501
C         3.05732616887403    2.58938339114582   -0.92004216528012
N         2.10781205828838    3.18817129398560    0.04050856179185
C         2.67134599656424    4.08663696840059    1.04233633639591
C         3.75020591205894    3.60063024816177    2.05170891913518
N         5.17352237480149    3.90063559321358    1.76491251930133
N         2.48008638240686    0.35867400629002   -0.03162716956572
C         1.28308359440939   -0.07235058775903   -0.53671198864787
C         0.84127639236675    0.39776797875349   -1.90010017382432
N         0.46895698025591   -0.84544778802386    0.10068548626319
H         3.32781567288873    2.52363059131809    4.51198088161151
H         4.85782948844841    1.90093312451109    4.04754246909215
H         3.38327047532633    0.79285068842679    4.09089426329109
H         2.65368581549647    1.67595131413652    2.07945015670081
H         5.46242878586589    1.18075387945164    2.21925402372472
H         6.34189936854287   -0.25160910699479   -1.64223829668342
H         6.15156691898418    1.46266707327979   -2.24569786961712
H         3.91402811718043   -0.52135148119782   -1.99743556392455
H         3.90420899020610    1.14412166823728   -2.74038065682011
H         2.57216512105043    2.68249834879110   -1.89818592613045
H         3.89853366935201    3.29042456708349   -0.99213848124819
H         1.56541165529727    2.43400449853008    0.45847790496981
H         1.78712499228740    4.50978168297918    1.53806955411234
H         3.16847645247984    4.93319980411747    0.55179212145912
H         3.56359279840489    4.22603297997953    2.93533058558408
H         5.55606270373954    3.21790251359304    1.10618943431525
H         5.58591005679454    3.70040678122463    2.67388453685998
H         2.77770646621570   -0.09392060087702    0.82678765434106
H         1.18002557407000   -0.23460359246087   -2.71650363119958
H         1.26049953070146    1.39752585392048   -2.04586989234715
H        -0.24702863682069    0.44740230793257   -1.79268944207173
H         0.80631852512504   -1.04593305816640    1.04356285214272
