39
 energy: -52.266995529845 gnorm: 0.114355081008 xtb: 6.4.1 (79825abcba525fcdf90b791dcacef51065a7a4e7)
C         3.83440221188687    1.50013296547936    3.76080272681453
C         3.67696575839429    1.90005680116548    2.28792586532288
N         4.76954413550565    1.30973301364299    1.53435563224551
C         4.81900971971375    1.25515401088524    0.16597084385579
N         5.91107096008433    1.25145437319442   -0.53946869495204
C         5.60097652956084    0.82211547429630   -1.90193157659632
C         4.13558569788572    0.41163409407056   -1.93393613111796
C         3.55337931309021    1.10235980847381   -0.69994191900596
C         3.13400481160134    2.54470445323851   -1.10895657532759
N         2.39991262377034    3.33372085103447   -0.09834116755628
C         3.19145582403553    4.13072844303641    0.83263049176131
C         3.57182808017906    3.44884070762958    2.17774027672843
N         4.71752156106875    4.22244599122985    2.71347010911908
N         2.50624827429515    0.33046069386310   -0.01720822296545
C         1.27872789585810   -0.13659339791310   -0.40290598555378
C         0.57114486702324    0.53496292095459   -1.55328453094448
N         0.54503879513005   -1.04277260276955    0.15143734635566
H         2.93003797884552    1.78682025742699    4.30410170707840
H         4.66243500666279    2.05394434266065    4.21277094587660
H         4.08466272039240    0.43471418024096    3.75240972781464
H         2.73687164439045    1.59327335099216    1.82312033516079
H         5.65925335716762    1.69262172609091    1.84868588932388
H         6.44576048370812    0.17394042736983   -2.16465842814391
H         5.72730246544806    1.62013577309176   -2.63694508192488
H         4.03797731649603   -0.66696372922682   -1.76172517533404
H         3.54168463312720    0.67267667997736   -2.81913355482002
H         2.57855033784809    2.39365892551013   -2.04141163790282
H         4.00989307601868    3.07416285363471   -1.50491141061322
H         1.64006051102957    2.80872150352192    0.33138499973258
H         2.62096932067431    5.04224810589687    1.05696665617360
H         4.01820519754898    4.43508509028913    0.17818915885789
H         2.73687367013261    3.74873708009903    2.82554702812483
H         5.64506277198701    4.07898385676677    2.30669796074190
H         4.70310940028198    4.25622804088524    3.73083747957340
H         3.04290095819121   -0.28406826886750    0.58665738565385
H         0.98737840079107    0.18781148113960   -2.49530095704711
H         0.64971896458511    1.61995336154073   -1.43867861660935
H        -0.47248551461668    0.20508836422973   -1.57394537056737
H         0.98463255541370   -1.44808098947858    0.97939104196008
