39
 energy: -52.270304598620 gnorm: 0.107003004530 xtb: 6.4.1 (79825abcba525fcdf90b791dcacef51065a7a4e7)
C         3.91204901104396    1.45166429179619    3.59633137833710
C         3.69222281317422    2.02040157451161    2.18838752266393
N         4.80072115915818    1.62279281824504    1.33796618066351
C         4.78315709452656    1.35697545723145   -0.00625673870918
N         5.88280157289950    1.07700713885574   -0.64080866165615
C         5.55001235166529    0.41901372814828   -1.90298596874971
C         4.05906773501168    0.53682598098132   -2.18599475007454
C         3.53737147801026    1.16491725277365   -0.89288131370182
C         3.01901269712818    2.60680810022413   -1.16816474013031
N         2.57289464082665    3.45719566672118   -0.04539968405192
C         3.42448134251255    4.20052349796747    0.87695262819504
C         3.41121952646741    3.54779202302014    2.28859706612825
N         4.28025441947227    4.30834688233589    3.21833885782087
N         2.65659181983454    0.22787950958494   -0.18251210883986
C         1.35217166255483   -0.16068314252915   -0.32816816218544
C         0.66732266881214    0.23011518615947   -1.61397178434385
N         0.61785985063986   -0.80108994068390    0.51883967326318
H         3.18790582547015    1.82453420960559    4.32559314204390
H         4.89027192586840    1.70123139721105    4.01754012509094
H         3.86485728677737    0.36055886329199    3.66760433716320
H         2.81993435611242    1.64339703132940    1.64901971681090
H         5.73947394007829    1.74790758980119    1.71223783444034
H         5.89223941660275   -0.62265479451769   -1.87801502899797
H         6.13008088441855    0.86946158201401   -2.71147636390481
H         3.69841652230387   -0.48361873661863   -2.36257488848537
H         3.86792342713042    1.24686089187952   -3.00070357313105
H         2.15324718718544    2.44432975473019   -1.81998352804152
H         3.81467464078498    3.20460948922951   -1.63059554315943
H         1.73075953174110    3.16285920480487    0.44637122689269
H         3.16335928061312    5.26715642287468    0.90450494051176
H         4.42982955884257    4.08120571240756    0.45330279167776
H         2.45413090455710    3.65989413434664    2.81600086925577
H         5.29617959522662    4.30410816598696    3.09894148340100
H         4.11248866589206    3.98537522338768    4.16909080417128
H         3.15865437357352   -0.25967695751190    0.55268684134925
H         1.37257389832800    0.13684174453644   -2.43560442342486
H         0.31497222638954    1.25889857133774   -1.49579151886604
H        -0.23980114361878   -0.38052485256710   -1.66548490348710
H         1.13056008866908   -0.95909058400015    1.38786162277492
