39
 energy: -52.250982509429 gnorm: 0.127602455778 xtb: 6.4.1 (79825abcba525fcdf90b791dcacef51065a7a4e7)
C         3.68433675382356    1.58308968577940    3.75618276184741
C         3.55152592631026    2.09474986106786    2.31581589281041
N         4.60646353602769    1.34404971751830    1.65730719030819
C         4.74096967692390    1.19252458614120    0.30200247972048
N         5.83705254467102    1.36982593898972   -0.37432802653648
C         5.58871148587350    1.09407511650650   -1.78821760883848
C         4.17964918439291    0.55484387650721   -1.98986742624723
C         3.56030680244938    1.03126351299767   -0.67523921585670
C         3.05336442066830    2.46985090246321   -0.98669026508343
N         2.31497326045095    3.28715508419219   -0.00202074177505
C         3.07181059426631    4.15458424320804    0.89421241123622
C         3.72401967615461    3.63766165275360    2.20813349699148
N         5.11404063680658    4.12979233966003    2.36219275532332
N         2.59053949348236    0.08157555959561   -0.11302832177454
C         1.31749349338067   -0.25014314942597   -0.49121496156529
C         0.56610731988130    0.44622562028349   -1.59824783147265
N         0.65418285094496   -1.27295037782696   -0.06619574113168
H         2.99483368162996    1.97751193539928    4.50735161980794
H         4.67892200163836    1.80677284343262    4.15290262902547
H         3.52482763917431    0.50969430165774    3.61406609375040
H         2.50140677322880    1.85215347869260    2.13599942154764
H         5.46375838048676    1.64185341822910    2.11920358328256
H         6.41453895594826    0.40260371069014   -1.99483926435163
H         5.89025200809736    1.97894642600706   -2.35312075976739
H         4.15983530023633   -0.54139509433203   -2.01047802653592
H         3.74438530511079    0.92498254736497   -2.92687270781028
H         2.40576385663136    2.48523559746740   -1.87054188062116
H         4.01428160195556    2.89090146656160   -1.30862392168535
H         1.43900723779277    2.81592203673966    0.21772243502143
H         2.32040602755026    4.88698789258329    1.21921354084069
H         3.80888024062724    4.60501209042792    0.21724561446611
H         3.18026907663445    4.04011751314639    3.07364193250220
H         5.74350185758289    3.79098659890904    1.63050504501539
H         5.66308823850942    3.95713635634010    3.20190815030430
H         2.88239690078412   -0.45596999188221    0.69700849309011
H         1.07353796999928    0.54529092120643   -2.55420788309644
H         0.35927495898703    1.45485246493863   -1.22891745969784
H        -0.30105380102145   -0.19938440750103   -1.77037496990604
H         1.05902581706051   -1.74537669981887    0.74370575024207
