39
 energy: -52.265960448744 gnorm: 0.119256093005 xtb: 6.4.1 (79825abcba525fcdf90b791dcacef51065a7a4e7)
C         3.68852706818436    1.62815980620715    3.70250683082021
C         3.69433325101591    2.17593554272104    2.26932869240862
N         4.71624062563727    1.40053422061544    1.58776002204954
C         4.67448071931951    1.09838129376180    0.25177263012415
N         5.77796008899582    0.94123063540135   -0.41747568588144
C         5.50607839228685    0.59411909164358   -1.81117201509542
C         3.99425431347807    0.48807909755645   -1.95271002874638
C         3.45582818748026    1.16120160841153   -0.68945575237628
C         3.03228185140329    2.60295390265801   -1.09625399949098
N         2.47795971384625    3.45320146025615   -0.02266759849631
C         3.40964260902998    4.22493887048711    0.79272084122143
C         3.73452201729551    3.73120687021419    2.23135086266358
N         4.92637974211535    4.42893229925699    2.77055352585556
N         2.40438213962200    0.41766807472188    0.01769064641877
C         1.38118556977369   -0.30843854890282   -0.52961778132928
C         0.65238334526465    0.14253723739220   -1.77078681931055
N         0.72543021169605   -1.26379364811499    0.03962603291565
H         2.70239763598461    1.59015617361634    4.17297735364445
H         4.30113093313092    2.24698254937569    4.36462127333149
H         4.09074053783642    0.61268721079882    3.77220389201062
H         2.69203072020157    2.03090907132246    1.85909198321237
H         5.65295761245005    1.60748196685773    1.92940848734582
H         5.99707784434243   -0.36359887193885   -2.02215082557690
H         5.87553420896091    1.35582521755327   -2.50135000952894
H         3.72869368087154   -0.57443097344822   -2.00845193445651
H         3.58072159699020    0.95800191027203   -2.85415299442702
H         2.25797278697967    2.51729480509946   -1.86691919675294
H         3.93869162810059    3.15775119411882   -1.36994717699869
H         1.64391061090337    3.11217620428143    0.45244079649728
H         3.01272083666222    5.24298458163181    0.90535162892147
H         4.39549808137400    4.49631454770186    0.39411680698994
H         2.89789491748469    3.97440992499449    2.90041561935330
H         5.68492322060699    4.39450682307780    2.08513078077946
H         5.16976837018120    4.01952931693519    3.67029597546045
H         2.72879585969715    0.02694290390541    0.89654512331816
H         1.19999718424644   -0.10093498871892   -2.67742885439036
H         0.48385666923729    1.22328806572603   -1.78022416978085
H        -0.35352170009430   -0.28707743573326   -1.81544929883763
H         1.09448197023705   -1.74102212665344    0.86368832268876
