39
 energy: -52.268289279476 gnorm: 0.110845432318 xtb: 6.4.1 (79825abcba525fcdf90b791dcacef51065a7a4e7)
C         3.75769127764275    1.22580982220421    3.48481233256672
C         3.58747219544117    1.99402255491426    2.16763116735211
N         4.78381325436275    1.70260536920306    1.39696790315516
C         4.86382361595825    1.42030311967158    0.05838417341695
N         5.99149911859785    1.42908622340717   -0.58855259715668
C         5.70727462097367    0.91352746704618   -1.92654032164926
C         4.28062323322759    0.38643455765667   -1.98760116611904
C         3.62471456893692    1.07756885603393   -0.79138831060991
C         2.95940590384423    2.41936684156303   -1.21620423131023
N         2.46840580728141    3.26094182805724   -0.10559531633203
C         3.39730631657206    3.98514416508443    0.75530234929740
C         3.34399006802061    3.52934221797100    2.24136299668712
N         4.37117075045457    4.11378805773527    3.13657696745310
N         2.67737646695148    0.25255021450870   -0.02959325564566
C         1.35520360031316   -0.01585503158060   -0.26095034898330
C         0.69209827835717    0.25074798282942   -1.58919979370608
N         0.62260384878469   -0.46690151382704    0.70165634861426
H         4.61619743986057    1.54776167074390    4.08025521544107
H         3.82272546190647    0.15683450960765    3.26191559149317
H         2.92460968691986    1.49376951529329    4.14207226481783
H         2.77899069843820    1.59486168820644    1.55040715338026
H         5.64509053670327    2.08260408401067    1.78528759582986
H         6.45102766497253    0.17053330927291   -2.23896200968008
H         5.76965680743410    1.74492103608500   -2.63218377838756
H         4.19549861490189   -0.69855583999983   -1.85303927379608
H         3.75938714259439    0.72311707847201   -2.89280501267061
H         2.13154781860287    2.25558173695322   -1.91523376398943
H         3.72627479762250    3.00961014584630   -1.73370942235817
H         1.52857259161641    3.13197481461837    0.26554503224669
H         3.14090889454752    5.05048902647552    0.67816382851942
H         4.38854559383675    3.82841141821553    0.31109463078461
H         2.30529053467748    3.67710213761849    2.56695564677486
H         5.23325138525037    3.77288569272798    2.70416486820354
H         4.11055247068570    3.95688885357211    4.10809436682625
H         2.98508278611388   -0.25857047428522    0.79160591134866
H         0.36077129707355    1.28111888641836   -1.68777795607662
H        -0.15190302484316   -0.44285104214385   -1.64483120603850
H         1.38529174613143   -0.04702694288232   -2.38243454790148
H         1.02709794968541   -0.67392220194782    1.61628842622204
