39
 energy: -52.258287181590 gnorm: 0.117716247070 xtb: 6.4.1 (79825abcba525fcdf90b791dcacef51065a7a4e7)
C         4.12561992304844    1.46865894277786    3.61200322177546
C         3.72748177010976    2.09594744632909    2.26958500083168
N         4.82393711913873    1.87867394523696    1.34186972413273
C         4.76489109879583    1.27564659790982    0.11273418497572
N         5.87793027071224    1.05709929991761   -0.52259033046787
C         5.64792033201194    0.59874539854198   -1.89145945006821
C         4.14978382348188    0.37224575270242   -2.03697385755481
C         3.54365025585646    1.02229793328867   -0.79244895678306
C         3.06932390519840    2.47227264765603   -1.10247131076501
N         2.40013135381755    3.09037834411493    0.06067459173707
C         3.03391684387274    4.06824406853203    0.93849264713835
C         3.37310296427863    3.60694746406672    2.38456750146331
N         4.38860770763633    4.48282503031115    3.01676504686577
N         2.58864239121561    0.18702225255219   -0.05169835309243
C         1.32539879646935   -0.14122947483765   -0.46422107303113
C         0.81005088812579    0.53427913186255   -1.71047027981083
N         0.49360487745174   -0.88423733595919    0.18602132055909
H         5.15675337122771    1.66218219237294    3.91949404551300
H         4.13954675013674    0.40851538539562    3.34270357124160
H         3.43001873749143    1.55087764836009    4.45295329047238
H         2.85826290107860    1.68720001185438    1.74869989692295
H         5.76788397579905    2.10899616665356    1.64667418128329
H         6.16905322203034   -0.35643122226892   -2.02884340877219
H         6.09327784192767    1.47426063554490   -2.36913009518323
H         3.97996800564885   -0.71113674900885   -2.03548934647991
H         3.60865997034443    0.66910967013641   -2.94443898772300
H         2.41061536063658    2.39517580041209   -1.97481068759996
H         3.92838716107545    3.09920902081539   -1.37311458436246
H         1.54865693564029    2.62606779005155    0.37223701882353
H         2.34669994558390    4.90992272791097    1.09961256416474
H         3.83219395615310    4.41642377631508    0.27068616807112
H         2.46915994575681    3.79114666672692    2.98097168698292
H         5.32258930582661    4.15866930220241    2.75412631840192
H         4.28914208532675    4.39056874164061    4.02571532835338
H         3.06854998129692   -0.48683327761137    0.53643687153665
H         0.61279753837344    1.59171677582294   -1.55530531088329
H        -0.17082399951532    0.12509349885117   -1.96924476152885
H         1.56145845835834    0.32664038306862   -2.47902820407231
H         0.90463004667552   -1.36138438613671    0.99002000569295
