39
 energy: -52.263203675376 gnorm: 0.122836561964 xtb: 6.4.1 (79825abcba525fcdf90b791dcacef51065a7a4e7)
C         4.05502079845272    1.91122792060966    3.95504404291114
C         3.64927343033064    2.11957320656898    2.49010280001915
N         4.52909531630939    1.27081560346668    1.70549990612661
C         4.67065199867461    1.04659709305683    0.36103334367415
N         5.83284377585607    0.67763808205886   -0.09000530718465
C         5.68252944096423    0.41134893582537   -1.51944268867508
C         4.23454018622846    0.60510065897437   -1.94684988788989
C         3.53800750890474    1.10919305018742   -0.68212025980817
C         3.08704410982912    2.58691641484608   -0.87314811470759
N         2.10883470722103    3.15911707842355    0.07473080645207
C         2.64191390922747    4.10974124643740    1.04458141487635
C         3.72254887774593    3.60895288462390    2.04478805578111
N         5.05508378594633    4.13069646372677    1.65720648746447
N         2.51829199889422    0.21811290344262   -0.11238930582142
C         1.25185440209133   -0.02950322984070   -0.56904082606648
C         0.83150738176681    0.63721321546195   -1.85505403655931
N         0.48055109892579   -0.95702518014006   -0.10909386159800
H         3.23042890464416    2.08590907448530    4.65130027947655
H         4.82167823160925    2.63969930489002    4.23466242265352
H         4.47869901316992    0.90828011401393    4.06644607702921
H         2.60977589306132    1.85845808801778    2.27749764663717
H         5.49476768771295    1.18052948404725    2.01584656692655
H         5.99060873133025   -0.60766997930549   -1.78307845581117
H         6.31082341223881    1.20917995306234   -1.92162652826982
H         3.74161247190158   -0.27644806043441   -2.37399316119153
H         4.20599203548399    1.34765803380826   -2.75445729061931
H         2.59210629599287    2.56085448383985   -1.85047825037799
H         3.97748299462497    3.16523694694951   -1.15054785821285
H         1.44039141729892    2.44958968369058    0.37039710657752
H         1.75384339573968    4.41208419016908    1.61604371578192
H         2.99848220191342    5.00441224356601    0.51840292514736
H         3.44688826203148    4.26635564961357    2.88059491475044
H         5.59314778207983    3.60628246906158    0.96304889992120
H         5.64078477048810    4.12363241825527    2.48984672049793
H         2.74123146583709   -0.28594766943301    0.73997008509558
H         1.56221148551582    0.39189121515745   -2.62124464706275
H         0.75762569028988    1.71681402890149   -1.69531601717673
H        -0.14682664076935    0.36559383021163   -2.26431423383088
H         0.87364155559594   -1.27969135417592    0.77656482974912
