39
 energy: -52.268637422272 gnorm: 0.118770079462 xtb: 6.4.1 (79825abcba525fcdf90b791dcacef51065a7a4e7)
C         3.75825688023369    1.94098056623122    3.91953485247684
C         3.61360234822395    2.12288450150228    2.40293418839929
N         4.50208725583544    1.20674589623586    1.70913134411643
C         4.76417016214894    1.10492863933511    0.36791979530828
N         5.97629832831363    0.80319605005208    0.00742136412172
C         5.84689984867309    0.45012361651758   -1.40516188589438
C         4.41914606921468    0.69426056908299   -1.87292874112188
C         3.63275342106271    1.22150359316851   -0.67192525126769
C         2.99174515035209    2.61573840956715   -0.93411538068756
N         2.07606147312620    3.20943172859621    0.06179292096376
C         2.60008827315698    4.09986941990920    1.09183495542176
C         3.79767640429639    3.60008208100825    1.94913860798849
N         5.07860591344684    3.88104376192580    1.25749906149877
N         2.67370563281641    0.24155257121205   -0.14432664119051
C         1.42191549995005   -0.04745697625720   -0.61677083807512
C         0.56865319923482    0.75953759586788   -1.56320394932590
N         0.66763622926664   -0.98924515064919   -0.15758154886183
H         3.40637586800068    2.78823383180702    4.51416053655339
H         4.79143897084947    1.67247904873535    4.15841206269386
H         3.08384479140700    1.12395955575295    4.19424006582568
H         2.56404812076044    1.88650106292355    2.21189493596727
H         5.24813615715572    0.91893475167817    2.33965933390079
H         6.03899714062347   -0.62842832558666   -1.45654827174792
H         6.58670511041130    1.00284177662563   -1.98845452122181
H         4.00452493689805   -0.19259185706078   -2.36703333720399
H         4.32961085748515    1.52629895898842   -2.58295110122812
H         2.38375662202216    2.49076991018771   -1.83719327650166
H         3.75878060486914    3.38115403126617   -1.10755760862545
H         1.57873230933824    2.41663638715910    0.46404082556025
H         1.73142994907662    4.31174826093984    1.72994915604807
H         2.90059253568088    5.05251146929902    0.63728983667003
H         3.77976330107125    4.17179356585056    2.88699007963237
H         5.21685800304616    3.26846052824854    0.45003029741584
H         5.88007642886342    3.80574513254614    1.88068477428076
H         2.99024983906363   -0.30966122061561    0.64703846637569
H         0.99880836648932    0.95665594459085   -2.54160586531449
H         0.29839100686656    1.72627262211177   -1.12858412128345
H        -0.35289500941766    0.19331204186423   -1.73215953354626
H         1.17230814829285   -1.54694143183759    0.53329181073202
