39
 energy: -52.260203521660 gnorm: 0.116109678215 xtb: 6.4.1 (79825abcba525fcdf90b791dcacef51065a7a4e7)
C         3.94768406340485    1.80451374798658    3.95802968497790
C         3.62467228474220    2.05289858049528    2.47882046638632
N         4.50105918780856    1.20594425125306    1.68844580369124
C         4.65878293932520    1.20283314971231    0.32719045284067
N         5.83542933362062    0.97868428096367   -0.17829634116790
C         5.62332582488147    0.70983736047574   -1.59939766604895
C         4.14318209022161    0.75275556153533   -1.95184920177317
C         3.51788543915794    1.36249094329293   -0.69644694741979
C         3.04239164899716    2.83918564263559   -0.82607874790078
N         2.13490814570898    3.23814498435954    0.26940600440326
C         2.60639329045557    4.15353157894626    1.30296253767301
C         3.78575225932604    3.55978521113505    2.12488220413781
N         5.08939988780996    3.79481714327321    1.45903838834966
N         2.41358484433152    0.57498207986287   -0.13183476531013
C         1.44168605552018   -0.19476914288219   -0.71201090274853
C         0.75644433040855    0.29693507550841   -1.96249207066239
N         0.90051402421959   -1.25766855985044   -0.21791108809663
H         3.30846498985069    2.49401908113013    4.51590011835317
H         4.98197196047997    1.91227054223396    4.29752583290391
H         3.71590067038809    0.76255725527777    4.19973420658225
H         2.57652206697532    1.76839276230874    2.35892570064012
H         5.41607171343960    1.09526046130737    2.12144803953156
H         6.08401723633914   -0.26661668693795   -1.79205574318444
H         6.12452075735214    1.50621157466389   -2.15404281302084
H         3.72720176334579   -0.26180851985751   -1.96516681951694
H         3.83513430573599    1.33932987086529   -2.82676252111953
H         2.54654368901260    2.95822366076743   -1.79601771613537
H         3.94196001036417    3.46200613722504   -0.91068407221851
H         1.74888838058690    2.47908247216659    0.82840239966101
H         1.77255663834199    4.21598248019300    2.01532900461191
H         2.84812651644135    5.12500424349335    0.85324389302152
H         3.95276077117205    4.01850235846566    3.10896909925280
H         5.35684151354679    3.34796359563748    0.57859841626856
H         5.81746587386410    3.81732721421018    2.17023352359898
H         2.82225183071724   -0.05989179602959    0.54656193319704
H         1.43393421154150    0.60457705023750   -2.75465574934165
H         0.19864783507336    1.22703898111575   -1.82007561072931
H         0.04019111628639   -0.49573575342152   -2.20137018975134
H         1.28981180724905   -1.60352067678209    0.66064365003383
