39
 energy: -52.263401389601 gnorm: 0.123722537603 xtb: 6.4.1 (79825abcba525fcdf90b791dcacef51065a7a4e7)
C         3.48272020400555    1.52216221891624    3.76115498137734
C         3.59007670194349    2.02053782038202    2.31402406226463
N         4.65958012835152    1.30787670996852    1.63700534859189
C         4.74817515309167    1.19707354148328    0.27400270017022
N         5.87785170139515    1.15248401855780   -0.36794671489698
C         5.64191738866128    0.87283467739458   -1.78319467647669
C         4.13919318230001    0.65803587534305   -1.89531502385466
C         3.48609067845758    1.16788008252928   -0.60988746947094
C         3.15187640292997    2.65549117808043   -0.92427588363378
N         2.23224569506748    3.41535757450233   -0.05268874822583
C         2.81679240171057    4.19013463260928    1.03657505046987
C         3.68192237123049    3.56730445761148    2.16909744668675
N         5.08205095935925    3.97944801667694    1.90859261724980
N         2.48156880283337    0.33306998137817    0.06276760215321
C         1.32417222263326   -0.22974009815964   -0.40347970005305
C         0.83964856073338    0.37091110979192   -1.69943007780352
N         0.78622114037380   -1.24298720293525    0.18871614095324
H         2.57770513425463    1.88725663942928    4.25399556068909
H         4.29893220781606    1.92275538537716    4.36938495412499
H         3.62756846504482    0.43750774075736    3.78017062854561
H         2.65749688417615    1.74558074695194    1.81539524242193
H         5.61185776431095    1.35171303768244    1.99510512734732
H         6.33451086649792    0.06212647209035   -2.03987092991651
H         5.91478621140733    1.74544180717187   -2.38080566356464
H         3.75150142449128   -0.35225292784319   -2.07299141998795
H         3.80650261813680    1.27142704379740   -2.74237136693398
H         2.56299773681855    2.66676440433695   -1.84834931103691
H         4.11738404790066    3.12814508726921   -1.14491121206253
H         1.66385068968547    2.68340608743056    0.37020399173651
H         2.01409315740420    4.75088604324478    1.53445198263829
H         3.35573284314116    5.06679024240689    0.65518405099034
H         3.49272608315479    4.15763621869051    3.07598964409848
H         5.44588928560684    3.83446148476147    0.96361735762083
H         5.79673143534475    3.65189022576945    2.55537157052852
H         2.94506360011872   -0.13882358060587    0.83269270275326
H         1.61549014821080    0.21100432608711   -2.44351278746819
H         0.63179172131267    1.43543878396085   -1.55769431713958
H        -0.10449564107704   -0.12534288405396   -1.94586905416237
H         1.30258262156118   -1.74094517557210    0.91565049772879
