39
 energy: -52.263297878328 gnorm: 0.113509195391 xtb: 6.4.1 (79825abcba525fcdf90b791dcacef51065a7a4e7)
C         3.96426128401755    1.58434052658962    3.80093624775032
C         3.66380770644416    2.01350650638049    2.35884202202217
N         4.75202595548259    1.69066651012095    1.45240220845336
C         4.73648011949312    1.25472363478739    0.15331993964015
N         5.81952081765200    0.78185833576328   -0.38860037126316
C         5.57927672190009    0.39606562636403   -1.77793197383913
C         4.07412117451278    0.42297538581299   -2.00303680197804
C         3.52774944049023    1.19422973722276   -0.80076701257100
C         2.91569708548137    2.56063284916183   -1.22721801661334
N         2.41831032076749    3.50083034443854   -0.20183185348134
C         3.34425482708481    4.09306902486876    0.75751692539166
C         3.42469020893210    3.54410851820581    2.21049551503854
N         4.51276976100319    4.32857873019638    2.84198147451311
N         2.59643896439857    0.39055834794887    0.00248268743692
C         1.38799978822625   -0.09469832402770   -0.41931029788021
C         0.53340181392419    0.63775172572036   -1.42340773888816
N         0.92248436129933   -1.23319129618449   -0.02702706372576
H         3.10815104764723    1.86848874293754    4.41865228531805
H         4.80230289277924    2.18227218501372    4.17078028746330
H         4.39485648620564    0.58026573585829    3.73582452460893
H         2.82484737518455    1.43710969605594    1.96153926296464
H         5.67687813885175    1.68847907629139    1.87858692325123
H         6.10882146456189   -0.49592067468776   -2.13396430474860
H         6.08940890868656    1.18753110004498   -2.33145437377316
H         3.60886669821419   -0.56669282720205   -2.08459883817090
H         3.88683021681437    0.93562208881455   -2.95516685536545
H         2.07639206573521    2.28482329666619   -1.87553355486649
H         3.70968757778796    3.07476835229141   -1.78357263549101
H         1.68427051628509    2.97161926835469    0.26591309042371
H         3.19723196273390    5.15909310743000    0.97803131063859
H         4.33367061182242    4.00658210357870    0.29059362265355
H         2.47195363031862    3.86494863541610    2.65332156932917
H         5.39945783509432    3.92358477694034    2.53191402614451
H         4.27973245277203    4.39745773444456    3.83058382172990
H         3.03170890466348   -0.24464160580087    0.66381220028319
H         1.01015622838000    0.86492777561020   -2.37327914862929
H         0.09986253872454    1.58724110785458   -1.09625904078045
H        -0.31794884531451   -0.00126964599607   -1.67887243847030
H         1.53848020256553   -1.69466917457940    0.64424946580251
