39
 energy: -52.264922189602 gnorm: 0.130738108366 xtb: 6.4.1 (79825abcba525fcdf90b791dcacef51065a7a4e7)
C         3.73210250552412    1.46169457511126    3.70935483592222
C         3.64628852421273    2.09573082586890    2.31482066999205
N         4.67608765024139    1.47217190037616    1.50194565697890
C         4.68463241839370    1.33284180525980    0.13870806792681
N         5.78117306107654    1.37745382877722   -0.55833192586447
C         5.51196542190014    0.89324538066473   -1.91105694135095
C         4.04964324507498    0.47760224973656   -1.98684725941845
C         3.43627031792360    1.11094112404504   -0.73726192937139
C         2.93603295906124    2.54772229581101   -1.06733534924803
N         2.48555386231284    3.38119836115448    0.06631713026764
C         3.57378786647970    4.09096906611229    0.72997537958104
C         3.65611094808979    3.64899399188129    2.21888612918421
N         4.81008964975675    4.20447606104174    2.96578502972365
N         2.45333156321337    0.30419399049968   -0.00144442000674
C         1.27045175020685   -0.18297251373683   -0.48844822944462
C         0.81306267277627   -0.09792186351689   -1.92322836312016
N         0.48227689564390   -0.74170991408345    0.36791028036018
H         2.87409644021945    1.32369558255167    4.37269480434696
H         4.41599289522634    2.04794423859217    4.33002051513729
H         4.20961591523236    0.49133390186611    3.54142908599875
H         2.64541869926391    1.82310614861130    1.97149490599863
H         5.61925051267674    1.73988233912822    1.77719954657579
H         6.16738411739566    0.03619136167150   -2.10778253898434
H         5.85827973061833    1.58959557946050   -2.67800041010721
H         3.93430527325306   -0.61053741445671   -1.91469126641386
H         3.52489022461562    0.79837877283762   -2.89578777907865
H         2.10206083101641    2.43219780116248   -1.76873498082254
H         3.67427334662812    3.11763542788533   -1.64568371068772
H         1.70263852369821    3.02870831077442    0.61445804361733
H         3.44686368496785    5.17877791746221    0.81489779236648
H         4.48141994565505    3.85782691252669    0.15875764539556
H         2.90228773526246    4.12390310158788    2.86149968756642
H         5.69812448766747    4.00813801498921    2.49757229762836
H         4.80557054138056    3.88135248483879    3.93116373077119
H         2.75553307179756    0.03457674384805    0.92929528164908
H         1.56059102986966   -0.52571143399202   -2.58606835810811
H         0.70493392670218    0.94613655000920   -2.23106412935639
H        -0.15663325511234   -0.59763693553934   -2.01478773108793
H         0.77865950325744   -0.91528194879455    1.32970806548900
