39
 energy: -52.260872203439 gnorm: 0.116690093919 xtb: 6.4.1 (79825abcba525fcdf90b791dcacef51065a7a4e7)
C         3.60372870609122    1.38395877376996    3.49140631048136
C         3.53740046343803    2.09746165040077    2.13471704478353
N         4.68145826111061    1.58839992526341    1.39846594935858
C         4.75329230180229    1.17330102235265    0.09445851819082
N         5.84538590459741    0.98725132335150   -0.58596299424072
C         5.47696605577240    0.72273153060938   -1.97560022759098
C         4.01842740329167    0.28737454800900   -1.97125999012960
C         3.48563221056349    1.08017973068586   -0.77694127579842
C         3.13831835537211    2.55581459075159   -1.13106103080480
N         2.73361728131332    3.60818377040636   -0.17632660657042
C         3.72697606552052    4.16352223178871    0.73653016025241
C         3.47937044428023    3.65184473813648    2.18423588870796
N         4.53735859399275    4.25238989291623    3.03163882262329
N         2.57889290109422    0.23773356204227    0.01460480509717
C         1.26528469254199   -0.06312913011181   -0.22544451395298
C         0.66742466411805    0.14969276733472   -1.59376561709457
N         0.59862923455874   -0.59854328793432    0.74185024727445
H         2.60192651123545    1.30678614606039    3.92230629578379
H         4.20373214658725    2.04000980354125    4.12875514694090
H         4.04447564113905    0.38365778045071    3.43701870490153
H         2.66677640471080    1.73599042775485    1.58218694746132
H         5.53771620625668    1.72511762186324    1.93243257641872
H         6.30335749454647    0.07923348075431   -2.30087498522940
H         5.66822626518992    1.61436406351976   -2.57680771929021
H         3.96639183891099   -0.79480506410298   -1.80174052876860
H         3.63248826990190    0.57206617217089   -2.95839617070984
H         2.30572911062649    2.58610285865589   -1.84288588114678
H         3.91782806982195    3.02206891265160   -1.74690043501426
H         1.92037326866531    3.42827683377210    0.41013037076177
H         3.72008246861226    5.26114642313674    0.69383039501196
H         4.71052311974156    3.78064255691127    0.43573238790323
H         2.46066198493601    3.87190066303824    2.53143719750911
H         5.43037290896228    3.77637639003273    2.88225929675395
H         4.31585838935461    4.28109447934116    4.02486538773906
H         3.03026150874666   -0.41248771107007    0.65003716324461
H         1.43236360081574    0.27619917546341   -2.35535866558725
H        -0.00684816543795    1.01064030833699   -1.61902701417517
H         0.11191364026518   -0.74447107565880   -1.89424354993382
H         1.19996719743983   -0.73277915401341    1.55634289406869
