39
 energy: -52.265840171848 gnorm: 0.128287606594 xtb: 6.4.1 (79825abcba525fcdf90b791dcacef51065a7a4e7)
C         3.76556155034397    1.77499615106364    3.81467561272203
C         3.59659121501400    2.10039964438576    2.32482555023576
N         4.68949816033714    1.52437480730567    1.56073936689974
C         4.65393367609461    1.29424136456034    0.21030365470615
N         5.79456051837990    1.07491616669243   -0.37375404796464
C         5.59126637528365    0.54155708757884   -1.71948626211107
C         4.09101968484357    0.30073457241155   -1.80978585704258
C         3.41526938968069    1.08119194452572   -0.68148799588438
C         2.96751843932282    2.52288924103735   -1.06169097061686
N         2.45588208783149    3.42207371330156   -0.00695054478851
C         3.53070002908282    4.09486093416698    0.71457130062373
C         3.71556261541246    3.64643062291452    2.19230957536327
N         4.95548366536196    4.17056857418377    2.81356666678189
N         2.36025889050499    0.32882499644309    0.01085158913551
C         1.20410714360155   -0.15059915303136   -0.54338161323242
C         0.60633859254481    0.44700350342887   -1.79261194451149
N         0.48156872590782   -1.09316061043245   -0.03714722945563
H         2.80672890448619    1.63662232277711    4.32136161291235
H         4.42393857723477    2.36757433955422    4.45655676555148
H         4.22590751931353    0.78705763231823    3.91405888327980
H         2.60588448265254    1.75995858176481    2.01412102467412
H         5.61887678049042    1.73759504973602    1.91820591918031
H         6.23747409371597   -0.34172039449637   -1.79056879262050
H         6.03547321730512    1.20061263069189   -2.46872960980410
H         3.94755284399793   -0.78552403876344   -1.76487678283145
H         3.81426012709220    0.52798902805010   -2.84718443532695
H         2.17990245792200    2.45456710478590   -1.82051248021100
H         3.78311619944626    3.04937030333366   -1.57345725958225
H         1.96915249523209    2.83225226736174    0.66600496503785
H         3.17001023047036    5.13240232918371    0.70679947106949
H         4.47412500942082    4.02759751878542    0.15791529144566
H         2.83899270598187    3.99239019340033    2.75682483428019
H         5.12114786426196    5.10535287420448    2.43263182260602
H         5.78401182965042    3.60647632769062    2.63544780715148
H         2.70621620581229   -0.28401771448694    0.74231113150730
H        -0.25997320821819   -0.09361683419145   -2.16462400984957
H         1.24721614009316    0.47290358391759   -2.67868070861642
H         0.24254779008659    1.44806840733165   -1.53976058455376
H         1.08022814306096   -1.65240414691444    0.57267116697459
