39
 energy: -52.267433842572 gnorm: 0.113376364670 xtb: 6.4.1 (79825abcba525fcdf90b791dcacef51065a7a4e7)
C         3.86257628343430    1.58886979475173    3.84210763882051
C         3.60938621774225    2.11180053102157    2.42206193826007
N         4.56069577688017    1.33105173033363    1.65036303595783
C         4.65203159346930    1.25455026723103    0.28518616113897
N         5.83460305448547    1.23466844570202   -0.25461548531822
C         5.62428519734802    0.98086225046550   -1.67874481920573
C         4.17437334407200    0.59744739784166   -1.93881828744381
C         3.46326288814907    1.10673701779347   -0.68432477901126
C         2.94371792022077    2.53704609413857   -1.01267668856640
N         2.21487228690293    3.28853744283335    0.02983302479506
C         3.10078629837254    4.09216606072483    0.86518167854666
C         3.73553484285863    3.64893078664214    2.21411127133884
N         5.12338372012786    4.17036351558914    2.20583234462869
N         2.44856289981311    0.25544204501771   -0.04862223362395
C         1.31180233854091   -0.27492523785477   -0.59652233818861
C         0.69667638408415    0.22802120611482   -1.87858994594188
N         0.61368585056817   -1.17652565312289    0.00887590222883
H         3.13668320842269    1.98088466533605    4.55949291455180
H         4.85580301322864    1.77314891374354    4.26182479147884
H         3.63781942648458    0.51893947895755    3.89261927786667
H         2.58307062238650    1.87643892969233    2.13014000131568
H         5.45784622864425    1.46859274245259    2.11209163576414
H         6.34465525709153    0.29229350475634   -2.13673638985962
H         5.70433464347625    1.97860225312364   -2.11594782230871
H         4.13967174357616   -0.47593989882852   -2.16061270018439
H         3.82931086671749    1.10126445183440   -2.85070448528792
H         2.37010725653441    2.45204500078191   -1.94249520633538
H         3.84935282850134    3.13571004387856   -1.17303120289346
H         1.52860595907573    2.72455075604319    0.52845278731683
H         2.50014821580390    4.94078937625665    1.21975469529844
H         3.94078189331223    4.49339930082885    0.28392421372035
H         3.16947901254159    4.04397116129761    3.06866623396631
H         5.72651675921179    3.89640967727090    1.42637259939277
H         5.65091202790823    3.91160987173377    3.03718409902696
H         2.84391008871937   -0.21329281779576    0.76025590206210
H         1.38461120765098    0.37118570437695   -2.70769128076501
H         0.27437072740946    1.19574090667464   -1.59277676421989
H        -0.00907198903453   -0.55183191883511   -2.18216333874360
H         0.81905096977310   -1.45223659071885    0.97055855490119
