39
 energy: -52.262369220103 gnorm: 0.118022663621 xtb: 6.4.1 (79825abcba525fcdf90b791dcacef51065a7a4e7)
C         3.29910439909773    1.71710595233747    3.76194094625413
C         3.48970969297399    1.99830537534853    2.26571634467438
N         4.53817768181220    1.19836525795926    1.65671022606328
C         4.79261775376906    1.20493946162903    0.31018891197007
N         5.95969168191536    1.00012414554886   -0.22483024866031
C         5.82648453566645    0.93565530042438   -1.67909816419117
C         4.39307407157321    0.49582808555217   -1.94134995770280
C         3.66311096083303    1.07906165735137   -0.73064750763672
C         3.16346127830956    2.49765749581074   -1.13247087253075
N         2.43018930184446    3.29046177237384   -0.12422721355941
C         3.05238843510073    4.23466759399249    0.79762611527512
C         3.67781388069329    3.52543794594215    2.03245832334681
N         5.11987163382448    3.86905903221620    2.01056932676316
N         2.63972635063104    0.18783186735323   -0.16777069672740
C         1.28595060647105    0.01863167839266   -0.27899595446863
C         0.41523285021688    0.64790087502477   -1.33772314487052
N         0.70122885744525   -0.89219668081203    0.42474344372863
H         2.30692756826805    2.11329202771842    3.99401804843201
H         4.04223996802327    2.19986527646541    4.40327828296031
H         3.28060943317545    0.64262370276036    3.96921801044995
H         2.53012719931371    1.77158943171523    1.79482514336722
H         5.43982951410748    1.14248028886591    2.12670023705819
H         6.49080649949244    0.20430632304683   -2.15514566356325
H         5.90669575949886    1.96591659129718   -2.03288810787029
H         4.38830133487513   -0.60054683233816   -1.91906716546137
H         3.98186527907298    0.69410732353566   -2.93936240355984
H         2.50730901566998    2.32747840038941   -1.99347037378507
H         3.95552774311804    3.11866623038347   -1.56981001655954
H         1.62258253472350    2.75311071911174    0.18672177755912
H         2.22982487731547    4.82145355616387    1.22857981026515
H         3.69666956137879    4.90734171094502    0.21723632475740
H         3.32041893289992    3.96962312674290    2.97145175291011
H         5.47436786040283    3.63960540832247    1.07887134711874
H         5.77830121239006    3.44189747487755    2.65894329038343
H         3.03103164944074   -0.53822228480587    0.42385514361026
H         0.75129808572454    0.20995184582186   -2.27389632652845
H         0.60107640731117    1.72120000197540   -1.43774219291728
H        -0.61865904362070    0.34587626893745   -1.14212879269064
H         1.29080246045242   -1.26631864564469    1.17003573794460
