39
 energy: -52.265708310897 gnorm: 0.107925937899 xtb: 6.4.1 (79825abcba525fcdf90b791dcacef51065a7a4e7)
C         3.91467377770821    1.41621606277865    3.48153774383574
C         3.74140296027203    2.04516889991925    2.09283795170037
N         4.93337973025022    1.91701569611700    1.27256609514320
C         4.82445856796375    1.40847914784825    0.00472170811479
N         5.89578830772767    1.13376826653032   -0.67868365744878
C         5.50854587067003    0.55501038739744   -1.96393777930385
C         3.99006982058101    0.45885324797273   -2.00722554285369
C         3.49566370411697    1.12563639063842   -0.72279149618781
C         3.01144415498902    2.54913625419069   -1.12615928355346
N         2.66470977723762    3.54967480200475   -0.09587796809081
C         3.56935109095323    4.18291869130689    0.85758741548956
C         3.37724443347188    3.54844333091477    2.26453813822485
N         4.15653120516339    4.26283204381573    3.30398320272267
N         2.55831705531507    0.25893522246100    0.00428984228766
C         1.30564772245940   -0.19032373501516   -0.31616997972707
C         0.66715433702377    0.33476441533277   -1.57777255431752
N         0.73820161723806   -1.12681105300247    0.36775501537793
H         2.99925593122512    1.59320694782730    4.05243392021628
H         4.67159135250975    1.93853781533698    4.07388594641225
H         4.02587807384920    0.33354576108388    3.59676174834301
H         2.88331262733997    1.53440255629744    1.64928870658379
H         5.88163962471789    1.73762585173176    1.59754643956248
H         5.89502421850350   -0.46147582623193   -2.10608729497791
H         5.84475274395967    1.20814569484430   -2.77228096030630
H         3.71023563628943   -0.59292773112157   -2.14141519411911
H         3.63937708283168    0.97478281563796   -2.91014717188327
H         2.08516210070010    2.41950450982164   -1.69713566389866
H         3.76457232058569    3.08202413237778   -1.72039421240108
H         1.89024683296619    3.20573955604286    0.46943594725837
H         3.44422546875664    5.27161853168764    0.93325707535930
H         4.58548405926804    4.02294179315376    0.47506664760617
H         2.30956514105672    3.67717525389542    2.48865710435568
H         5.16465376223744    4.11857909266134    3.20776645889774
H         3.92830805252628    4.05185714052134    4.27341039825379
H         2.92773163813715   -0.27116612880307    0.78711870640482
H         1.43062407374542    0.34114613131126   -2.35122756978096
H         0.28380549371031    1.32780992787000   -1.32594536062940
H        -0.15216037278917   -0.35535053244707   -1.80332350893596
H         1.30120649375902   -1.50573080272496    1.13095237847553
