39
 energy: -52.273605242332 gnorm: 0.111608017128 xtb: 6.4.1 (79825abcba525fcdf90b791dcacef51065a7a4e7)
C         3.79236659693694    1.61502651941538    3.83748389466694
C         3.62084849505341    1.98741455256657    2.35897104268820
N         4.63225990542759    1.21486296197211    1.65876480812331
C         4.74071675039562    1.18998795542591    0.29292405559885
N         5.89051454778886    1.23277202937846   -0.31237827661741
C         5.73904344921596    0.88968431962616   -1.72522747974360
C         4.24486280436576    0.67215687072532   -1.91756973265976
C         3.54021329607572    1.21396255252204   -0.67309247504568
C         2.92767544191203    2.60842409839254   -0.99527309525435
N         2.17394111960287    3.30205617862000    0.06940563370877
C         2.80146352130212    4.13513649754300    1.08953443298417
C         3.75009447155271    3.52557280505925    2.16075135067968
N         5.12210534925739    4.05893887232481    1.98413899333906
N         2.57131182359264    0.23596055944518   -0.16008276750410
C         1.32146730293025   -0.19070473986756   -0.52001879662375
C         0.71190645654847    0.40440950017970   -1.76473042223560
N         0.63124687709598   -1.08514858977766    0.10473950075269
H         3.09286764574884    2.12997933417792    4.50138363509476
H         4.76963081800369    1.82566692946440    4.28156258127574
H         3.53989588355083    0.55201950168459    3.90145711376569
H         2.65604117332131    1.68127907495270    1.94743112096104
H         5.57785344580526    1.27729872644411    2.03151727286906
H         6.35108574385181    0.01321566099517   -1.97022367714668
H         6.11121229755433    1.74730827735304   -2.29003805159443
H         4.13156104409148   -0.39780745662628   -2.12945722310900
H         3.94592629853212    1.09137681452962   -2.88675896934554
H         2.22740503961018    2.39347969368715   -1.81028053377078
H         3.68848859260261    3.31977326466941   -1.34086299415526
H         1.28454773007459    2.92088022639664    0.38775828092702
H         1.97177520561178    4.57185590250388    1.66184826026696
H         3.34190959452000    4.92765894843021    0.55636733240734
H         3.36160055112733    3.96035024228032    3.09176227422594
H         5.58378378850423    3.68284958413918    1.15240133667242
H         5.62046284323297    3.75293613996629    2.81743812374082
H         2.81712478921332   -0.27710638777271    0.68053242419815
H         1.36814306467333    0.37388154961135   -2.63051386979971
H         0.52229241747989    1.45505637806888   -1.52661214461180
H        -0.18481132764766   -0.16555935159808   -2.02824738165543
H         1.12055980590269   -1.40871799999534    0.94074223861583
