39
 energy: -52.264217568422 gnorm: 0.105830440226 xtb: 6.4.1 (79825abcba525fcdf90b791dcacef51065a7a4e7)
C         4.00942418171203    1.75462373047885    3.91963735146453
C         3.66642893834435    2.04141397651433    2.45191900180810
N         4.66421044085509    1.34998595908934    1.65414892567977
C         4.67639547886086    1.13331018286732    0.30107623711968
N         5.79591908890032    0.82924385209132   -0.28583678873240
C         5.57377320056991    0.34414223695145   -1.64676410449521
C         4.10413261629529    0.56461856450330   -1.97606072693956
C         3.53705679219905    1.24695726874349   -0.73040955273375
C         3.14692223404434    2.74301645061725   -0.91242036408103
N         2.18169501778561    3.23998715324170    0.08964662486064
C         2.80509580063471    4.17247705839716    1.02254747958789
C         3.63676329156910    3.57578523263341    2.19355657465300
N         4.96918676197393    4.19815939101030    2.00545226372482
N         2.45254252916754    0.48783780103756   -0.09322560987861
C         1.31242369853114   -0.06149562301773   -0.61482928738591
C         0.84064837230852    0.20755202644120   -2.02198024401982
N         0.47731418719230   -0.71337870305814    0.12300370570763
H         3.14029322267825    1.90372811147435    4.56587051756205
H         4.78433710614814    2.46393294465220    4.22461442460571
H         4.31781133423139    0.70510246131019    3.95457183886222
H         2.67240218240599    1.63019187405625    2.26023077422825
H         5.62557467091797    1.43060486016584    1.98013843741914
H         5.93873985243473   -0.68971791817889   -1.67412714437249
H         6.18318880307726    0.92867169162767   -2.33956813336582
H         3.56359751191737   -0.38833824577703   -2.02351998012155
H         3.92100531327720    1.10862870401780   -2.91145023146886
H         2.87127882310595    3.07717028942764   -1.91898817731998
H         4.15443642633773    3.15129084624315   -0.76237418560116
H         1.63761961378466    2.51439812519279    0.55350720852420
H         2.02788993317093    4.79925787926915    1.48052837181857
H         3.44035966520560    4.76975040209779    0.35610519017279
H         3.28056104356059    4.04737917665156    3.11954760525717
H         5.30352207730189    3.84251957890748    1.10649849089548
H         5.62905959233853    3.93986441428529    2.73636734400558
H         2.81154208805352   -0.12833142720049    0.62909732062571
H         1.59151306356869   -0.03806284555519   -2.76832799676183
H         0.48701614975853    1.21574085166357   -2.25652702916463
H        -0.01309124538271   -0.47590673098047   -2.07118657695346
H         0.85775919399010   -0.90741002009633    1.05070965493126
