39
 energy: -52.262027593769 gnorm: 0.116130244619 xtb: 6.4.1 (79825abcba525fcdf90b791dcacef51065a7a4e7)
C         3.40599624020975    1.57545746267086    3.61666346552656
C         3.48629698843987    2.11522753645775    2.18268591783543
N         4.64299667994897    1.55473662310210    1.50594850901163
C         4.73674850247344    1.35670775911267    0.15321136830347
N         5.84822088553257    1.24276031856631   -0.51154534389839
C         5.61637371869915    0.95713478050711   -1.92627517015461
C         4.16309643079132    0.51106453482368   -2.00306056399592
C         3.51955910681563    1.14120691703976   -0.76710414494400
C         2.97970955623542    2.53709844994716   -1.19556101913604
N         2.58422155068706    3.30693197754570    0.00182250144443
C         3.51592681386463    4.12589117259294    0.76974249081448
C         3.58549479838488    3.66667498969302    2.25407906760006
N         4.71920282626813    4.29368142580354    2.97494949754773
N         2.67635183179932    0.21113036162964   -0.00395538394774
C         1.45611369502175   -0.29444036823535   -0.36329601184550
C         0.56314654406814    0.16524801769516   -1.48860871056387
N         0.91143360589191   -1.30227904796821    0.23197012590740
H         3.21318708616210    2.22739337361225    4.47284232689763
H         4.32399503810337    1.05487578905748    3.90457586007844
H         2.67449728887674    0.77130814239691    3.74343532163980
H         2.53449309793948    2.06659742274224    1.64823136759476
H         5.54430167596939    1.65000552917608    1.97023602420486
H         6.24648839446895    0.11932011163429   -2.24851466901494
H         5.87970725530268    1.79028006534773   -2.58168639017822
H         4.09404749518985   -0.58094729684229   -1.93026174571960
H         3.65274568129923    0.66094082291769   -2.96301649236614
H         2.08670448128204    2.51280364552708   -1.83020150599885
H         3.80853468970338    2.91079740700675   -1.81012156739002
H         1.72699166452840    3.81890819866788   -0.19992338127428
H         3.17684256570275    5.16928537772943    0.71496962901407
H         4.50729206786152    4.03126836320927    0.30856745666592
H         2.71753965952263    3.98103744880651    2.84953721716198
H         5.60842753859085    3.82658664566510    2.78135316123925
H         4.56914300594973    4.04652000667162    3.95105327717274
H         3.13072145965369   -0.37851892160573    0.68608633302353
H         1.15848345551379    0.39139605066663   -2.36928484320976
H         0.06213284294584    1.08599854384435   -1.17601249038706
H        -0.17727650342089   -0.61371643335515   -1.69692711540821
H         1.58310821309190   -1.74944718596591    0.85800428105282
