39
 energy: -52.271714072257 gnorm: 0.117129670685 xtb: 6.4.1 (79825abcba525fcdf90b791dcacef51065a7a4e7)
C         3.90666063175260    1.49289857300724    3.80847039960688
C         3.66772536088591    2.02590647987326    2.38970189971977
N         4.68984960725642    1.44992090367571    1.53320881712053
C         4.68346248905601    1.26926933172669    0.17481755339195
N         5.81496621566705    1.16080636504066   -0.45620659048884
C         5.49086750791033    0.91436112704813   -1.86013690249013
C         4.02042313504716    0.54696041162695   -2.00049219295991
C         3.43944398278485    1.16720119037682   -0.72904711213683
C         2.83084326909533    2.53582059005778   -1.15332549469640
N         2.48164886034593    3.42930336615018   -0.02970032474912
C         3.61964087804189    3.99600432666779    0.68604695507912
C         3.62544704057495    3.56754496253404    2.18116004097888
N         4.68764402086770    4.36392042517264    2.84116673452382
N         2.43561077805805    0.41515398884892    0.03592404551968
C         1.34085978928845   -0.23305894036132   -0.46909957753959
C         0.77639710852782    0.06145438730114   -1.83646061834910
N         0.57605859497939   -0.95145598183569    0.28305852715277
H         3.15079739674157    1.90582818401536    4.48181871587218
H         4.94868133034120    1.62648609707029    4.11337670576398
H         3.75733677607861    0.41771902764450    3.66879476243722
H         2.70962317193621    1.58317747691014    2.10691500303368
H         5.60840438794003    1.39184721660535    1.96895452535683
H         6.13604675384280    0.06683373219296   -2.12139784420445
H         5.78933480621542    1.76044314482950   -2.48311521770667
H         3.83581103989133   -0.52806324369678   -2.11362829779149
H         3.61634443842900    1.07254900032894   -2.87508537186213
H         1.95324727416314    2.33029839182466   -1.77654516838368
H         3.60780581586540    3.11964892133031   -1.66299241012748
H         1.76977252500382    3.02248525234231    0.57477898448417
H         3.61490692230751    5.09345161188844    0.73334081339553
H         4.52363013339678    3.67398207327209    0.15355653279504
H         2.69265050272852    3.95423039196642    2.61371672223263
H         5.63360689037983    4.31635670294902    2.45481248680551
H         4.66552886882379    4.13321646236085    3.83246482591646
H         2.82612483458270    0.06461809141261    0.90478477980322
H         1.52698712482929   -0.15853280775315   -2.59103313767338
H         0.51229746635034    1.09676301001751   -2.07076830583404
H        -0.14182344846613   -0.50382853639063   -2.02549683277122
H         0.70350480447397   -1.07005955310987    1.28939621310841
