39
 energy: -52.258377437753 gnorm: 0.123409316986 xtb: 6.4.1 (79825abcba525fcdf90b791dcacef51065a7a4e7)
C         3.51746970713062    1.65568778571646    3.81908805941638
C         3.49333879454075    2.12724615952852    2.35924493347038
N         4.48354098162317    1.35793281216558    1.62594120360358
C         4.55613376827454    1.29726424411894    0.25884493577541
N         5.70933968836141    1.27062829557876   -0.34087415441086
C         5.51109953456746    1.04433708525594   -1.77135962078674
C         4.06347351193596    0.60717745283196   -1.94502565293383
C         3.37320842098795    1.22046531437732   -0.72591939551037
C         2.82683202557235    2.63057016196150   -1.09551796703134
N         2.52922586993860    3.59571519298810   -0.01722889207966
C         3.67611612190285    4.08133126816923    0.74256696035646
C         3.68958612814257    3.66657959349503    2.24149120091485
N         5.00903721093288    4.17517820307046    2.68698130595369
N         2.43894368308575    0.30146967600212   -0.06181599606730
C         1.45803405378928   -0.49722150015456   -0.58490035855244
C         0.79874224716378    0.00065689628126   -1.84683689780325
N         0.98163456706826   -1.51054629692023    0.05772966663457
H         2.44565418103008    1.64992707738669    4.03453258738043
H         4.06878412517172    2.36319595989908    4.44527111213443
H         3.93077056119103    0.64235127308176    3.83131376528119
H         2.51656494968388    1.80905198385007    1.98695133323130
H         5.45579380981398    1.50788919290444    1.88905199630083
H         6.14361303732877    0.18305883410863   -2.01822529816102
H         5.84904738006072    1.91858890531698   -2.33217553850985
H         3.98590966720168   -0.42632295750640   -1.58667103676230
H         3.42838315808700    0.90070810724565   -2.79056463999288
H         1.87334744638040    2.51396337466716   -1.62285738184381
H         3.52932674172256    3.15599144812680   -1.75485119640395
H         1.74021474452840    3.31781556546027    0.56406050251110
H         3.63719918966284    5.17396709755760    0.63634984294418
H         4.61800605758736    3.83208411738402    0.23743315975683
H         2.86192879665809    4.04833914992669    2.85466594347430
H         5.68986911292873    4.14794379569899    1.92402398589888
H         5.29996601854029    3.87056544278643    3.61378052789237
H         2.64273465147502    0.02649635511737    0.89377518966554
H         1.55091257012919   -0.09897520681075   -2.62495814332988
H         0.43833135740125    1.01077159748140   -1.63169754562873
H        -0.09947233596925   -0.54484652308840   -2.15350453596642
H         1.51653554353415   -1.73204031892495    0.89906564328967
