39
 energy: -52.260823615815 gnorm: 0.115817286242 xtb: 6.4.1 (79825abcba525fcdf90b791dcacef51065a7a4e7)
C         3.76109310071509    1.44717564777633    3.66220016254508
C         3.71405532744876    1.99424144340718    2.22951108031390
N         4.88248806291236    1.64838006959247    1.43880088799925
C         4.80229585751524    1.19311513010455    0.14875993554892
N         5.90200863115451    0.97818917105628   -0.51055411860974
C         5.58687064273369    0.71745525902063   -1.91394338045802
C         4.11115580089903    0.35069068410673   -1.98205353047594
C         3.55413404557535    1.05601832194570   -0.74469842350275
C         3.25497093319361    2.54550291150380   -1.08449701682369
N         2.46453626795378    3.40051033179831   -0.17512523137699
C         3.12115257843149    4.18931512999913    0.86175082951964
C         3.42746821916599    3.52387420318746    2.23373237627811
N         4.47175336661937    4.37182083100091    2.85706229002971
N         2.60204656632163    0.19948627952503   -0.02475452244620
C         1.30231572018192   -0.10719867969531   -0.32534165414275
C         0.64995356398458    0.51711913108216   -1.53351519730545
N         0.57036524537515   -0.86964485649980    0.41606329715579
H         2.82684640050203    1.05738455613899    4.07509730758661
H         4.15068854596279    2.22717448454665    4.32283457194711
H         4.55032880895515    0.69233147486680    3.73386061169648
H         2.79515804005212    1.64261286833668    1.75419821419172
H         5.82382551775779    1.94114492553941    1.69406994548910
H         6.20506913704721   -0.05123153368040   -2.39328402788119
H         5.89096130058181    1.54303574822378   -2.56123405310585
H         3.98101408976082   -0.73787029085869   -2.00765425686104
H         3.70990467317800    0.63142231355529   -2.96420599237043
H         2.68043662573559    2.51723355533047   -2.01719634246862
H         4.20943124149221    3.03844047478546   -1.30878422475634
H         1.60075610394537    2.93998140307284    0.10676314258509
H         2.55011368959088    5.09922671220072    1.09115256399365
H         4.11659840807123    4.38304643263700    0.44223118039987
H         2.46139204241961    3.70701977215427    2.72352294844473
H         5.31309239869932    4.21783027417190    2.29598011524172
H         4.70658866335986    3.89267720528422    3.72404503160622
H         3.08513572764234   -0.55539799940318    0.45176431525915
H         0.06666929626910    1.37797438176576   -1.21749759665179
H        -0.05564568665948   -0.21395623138614   -1.93869561681387
H         1.36353710803514    0.64936950247930   -2.35309852326537
H         1.03162823748318   -1.39265411334418    1.16220178950511
