39
 energy: -52.265524714715 gnorm: 0.111869811110 xtb: 6.4.1 (79825abcba525fcdf90b791dcacef51065a7a4e7)
C         3.89336844950393    1.41967122075540    3.57738836036935
C         3.60879028248292    1.95707277984900    2.16873425559381
N         4.79627055609013    1.65149946721794    1.38989324970500
C         4.85490574298859    1.19074610983668    0.10064119094177
N         5.97032538824040    0.96904460736486   -0.52939358726582
C         5.73581610875782    0.66069397335931   -1.93890443331703
C         4.23147472026546    0.45345262529316   -2.04329574746794
C         3.60529065849570    1.07408051957540   -0.79368680063731
C         3.12540551457919    2.50047769854353   -1.19196726277328
N         2.47024857391248    3.40850009245003   -0.22809672650414
C         3.32031712045075    4.11353863428278    0.72519970599060
C         3.32731461465410    3.48753221651800    2.14894170371422
N         4.23670875914828    4.31228625906377    2.98012652197584
N         2.65738859783168    0.18027579888696   -0.11469362163453
C         1.29945443519753    0.03011422632464   -0.19939824880223
C         0.37030488659002    0.85784086841093   -1.05179612525209
N         0.79205328751879   -1.03356907725137    0.32774393877405
H         2.98862485068486    1.16449356580114    4.13556524442644
H         4.50427263689505    2.07515886853331    4.20488548108665
H         4.39913696715029    0.46125976385405    3.42420990947249
H         2.67676462841915    1.48567696944775    1.84771810363170
H         5.70793410797987    1.95738897854738    1.72499164540463
H         6.25734442528119   -0.22886260163027   -2.31241953661378
H         6.04278361605930    1.53148406095064   -2.52245825389548
H         4.02440529947637   -0.62205808972475   -2.09766689827693
H         3.81458769451202    0.79622397155480   -2.99888414626312
H         2.40979354314923    2.26960798125055   -1.98909682842377
H         4.02931479666985    3.03483088544556   -1.51087376690818
H         1.68409807584966    3.03072114349743    0.29813001307973
H         3.00942276151856    5.14072304261994    0.95947849144224
H         4.30393101955314    4.05298623228377    0.24221103308770
H         2.37648621814503    3.63176300853348    2.67984953572416
H         5.10863092817804    4.44793383953513    2.46270103861643
H         4.37522238011534    3.68826864474558    3.77246565426001
H         3.11022965544432   -0.69611942865348    0.12439213391961
H         0.65184729082990    0.64982885064957   -2.08069082352564
H         0.40214904986352    1.90627277067816   -0.74149119005120
H        -0.60353209302565    0.41909795718063   -0.81189059126890
H         1.42457932902006   -1.70160308755002    0.77121462551491
