39
 energy: -52.251950546831 gnorm: 0.134731183731 xtb: 6.4.1 (79825abcba525fcdf90b791dcacef51065a7a4e7)
C         3.79800325609540    1.62665692651057    3.85574967731812
C         3.58293179903222    1.86738722312773    2.35578810103665
N         4.61681908516424    1.18826971962486    1.59424084268961
C         4.81240912457549    1.08678386480880    0.24170702057539
N         5.97821791249014    1.16807081442096   -0.32797591360302
C         5.76124857206269    1.03457209560231   -1.76738479816120
C         4.30571272419773    0.64581322768245   -1.98457474678674
C         3.61281463606792    1.16215695623435   -0.72279451219245
C         3.07830351612305    2.60475207593218   -0.96100268763938
N         2.17118890366422    3.18825196345134    0.04867678040024
C         2.57514573080392    4.06576100138263    1.14195931564304
C         3.55521343058627    3.41057154108771    2.15643864868763
N         4.92454000002306    3.83103621397314    1.77402612944422
N         2.65919626499705    0.20652374083472   -0.14329982995153
C         1.31686170532447    0.08098232273246   -0.38012433542300
C         0.92076985622189    0.36628257095999   -1.80727094375138
N         0.51887961793243   -0.43789572484331    0.49208385737353
H         2.98632130356773    2.04940289506124    4.45382684590280
H         4.82304656536463    1.85568786889460    4.16144831471730
H         3.71365609136261    0.54386640730750    3.99090957062097
H         2.59237825724935    1.64805969059243    1.95003410482569
H         5.50125112068823    1.19784113624520    2.09889727717758
H         6.47067658677580    0.26157153954709   -2.08675644772499
H         5.86801567817812    1.96724804405328   -2.32573580622094
H         4.16386034780959   -0.44068364533130   -1.94030608880467
H         3.89078176901459    0.93519760615059   -2.95849730730423
H         2.50794547641490    2.61261818252324   -1.89665576240429
H         3.94781789595761    3.25241962682764   -1.13058495290634
H         1.25324476628315    2.75166910930392    0.11529569274523
H         1.66808604595317    4.21050571483400    1.74440545394194
H         2.96522250119883    5.06176502956634    0.89648625109031
H         3.38107073853913    3.86721271800200    3.14025440028730
H         5.20644725196017    3.53136392820666    0.83748863179623
H         5.70176863428545    3.55256101589116    2.36963717228175
H         3.07442048086328   -0.43917577991146    0.52074578929232
H         1.75945602904883    0.40376997771307   -2.49745904820782
H         0.44535764568724    1.34908486231637   -1.87506140543576
H         0.21160239917131   -0.45965419245058   -1.92267654599564
H         0.91445404635168   -0.63349786667004    1.41310804497604
