39
 energy: -52.275013027180 gnorm: 0.113407836532 xtb: 6.4.1 (79825abcba525fcdf90b791dcacef51065a7a4e7)
C         4.04591985216461    1.55418869233684    3.63529950808545
C         3.68149904366565    1.98875133311487    2.20966128466738
N         4.83020812528270    1.61411519388770    1.40331584271968
C         4.79915574627218    1.29449352286717    0.07110701908738
N         5.88999499634478    1.02560647637532   -0.58312982780219
C         5.50439006712818    0.75631126481260   -1.96717624112593
C         4.02461814849180    0.40128818308416   -1.93366170907564
C         3.47668898417521    1.12193279198348   -0.70108190499625
C         2.97051659229940    2.52272768600495   -1.15394964620921
N         2.59727829282858    3.54463261069321   -0.15435712595946
C         3.56960830406280    4.10297934907264    0.77907376994198
C         3.38814435432126    3.51710589388069    2.20833840862911
N         4.23304059884693    4.28495361036009    3.15419535490863
N         2.51059419332497    0.34729133019122    0.08950548057425
C         1.35355190864627   -0.19924623639721   -0.39655873559003
C         0.66427212372850    0.38255846219541   -1.60545455823861
N         0.74677292630282   -1.22631308723604    0.09711112966464
H         3.26733335354227    1.79150595272520    4.36517732729944
H         4.94847815250634    2.08706578725596    3.94843069167375
H         4.27097904522190    0.48317157085458    3.64471418889787
H         2.74126071951948    1.61914690007379    1.79339014585814
H         5.75510540813509    1.70671702712267    1.81922409320007
H         6.10966284545025   -0.04338514470360   -2.41096305518524
H         5.67614940735726    1.63930688059429   -2.58673815241556
H         3.77344020477264   -0.66540384233630   -1.89322621632331
H         3.44736446085523    0.92761646064408   -2.70450080908715
H         2.11799828889513    2.42602477735684   -1.83562254888810
H         3.85258018648907    2.98247203281362   -1.61750723409351
H         1.74065898877609    3.19945808700818    0.27543589988973
H         3.33809559804508    5.17605457362093    0.81858443399113
H         4.60261384055118    3.93463499931941    0.44892123909108
H         2.36960107044954    3.61715778066811    2.60746180321034
H         5.23619081385998    4.21238597646127    2.96764442701189
H         3.97672381290593    4.10697221584591    4.12322044883699
H         2.95327054637231   -0.18439323606915    0.83223341650793
H         1.30081502059814    0.53208481571750   -2.47356424835574
H         0.26597704287102    1.34386475067043   -1.26816549323381
H        -0.11660167466275   -0.35131260287744   -1.82923534927563
H         1.15534198201408   -1.49691053865339    0.99314306741238
