39
 energy: -52.268785105448 gnorm: 0.119892346468 xtb: 6.4.1 (79825abcba525fcdf90b791dcacef51065a7a4e7)
C         3.60057428152351    1.61688724375116    3.90874605468736
C         3.70500843691662    1.91430076393689    2.40717007373947
N         4.70804958559504    1.14418829542691    1.69238812062062
C         4.76716366592771    1.09843436686568    0.32406249467076
N         5.94972117483612    1.22823195250457   -0.20031036152291
C         5.88046727350729    0.90801058632278   -1.62490075502349
C         4.41553833816323    0.65581925777927   -1.95242537312951
C         3.62814876231965    1.08592752514207   -0.71394535275546
C         2.96289357285615    2.47362867157543   -0.94899297358770
N         2.09534660207369    3.10203189740299    0.06848110646342
C         2.70820937962493    4.02939032410565    1.01340207886852
C         3.73757826528607    3.41758150505578    2.00590603426467
N         5.09921275740560    3.78671240424121    1.55007807450741
N         2.61352535868027    0.14955024116859   -0.21177587692833
C         1.26191272840633    0.14826437118558   -0.42822544325633
C         0.67382477618755    0.48142179940871   -1.77662866184871
N         0.39618418633877   -0.13337354110255    0.48717133427866
H         2.72192781499177    2.10142147654838    4.34284863298511
H         4.43586900898054    1.97296290646778    4.51875712121680
H         3.38920075017487    0.55460847973917    4.06591808118119
H         2.74543502900832    1.55312318681454    2.02940437402896
H         5.65817973493371    1.15953966026898    2.05845763745275
H         6.54042667500441    0.11298086755507   -1.99259300073371
H         6.18937308120113    1.82453384375103   -2.13244566752613
H         4.23633835635191   -0.42121197624934   -2.05464283827317
H         4.15740108936503    1.19052104436341   -2.87540717391129
H         2.40478657440155    2.34730159817171   -1.88353830779533
H         3.73841377438362    3.23493008906153   -1.10155549400155
H         1.53423190165534    2.36935977157088    0.49976525651571
H         1.90241480266003    4.42753834930470    1.64492638907972
H         3.17919802051694    4.82161831111581    0.41759546340114
H         3.67729806962843    4.00568016903285    2.93178216782930
H         5.36462066034157    3.35555751764217    0.66123512310299
H         5.86351160939158    3.49819240831101    2.15752255768231
H         2.84601735686054   -0.26826277204717    0.68358743212257
H        -0.03151653183539   -0.30149319370925   -2.04251811236444
H         1.48962407188835    0.48312825509796   -2.50531328539075
H         0.12721376545389    1.42986221432643   -1.78588468917545
H         0.83496065136764   -0.47258942842230    1.34474506204152
