36
 energy: -47.836731378035 gnorm: 0.137915061087 xtb: 6.4.1 (79825abcba525fcdf90b791dcacef51065a7a4e7)
C         1.73398375388902    0.11255566934542    0.44348520943751
C         3.18780492184471    0.16571684025165   -0.08046753007733
C         3.45616667993915    1.56864039349691   -0.59284539876220
C         4.05168715906783    1.92673697304314    0.83757841135524
N         3.20679333331888    2.60517119739842    1.81246010491333
C         4.00104507621702    3.68981222864064    2.46071563617580
C         4.44468640756782    3.24130788037558    3.89291668601176
N         4.57044263180977    1.81785880303802    4.24317920297044
C         5.23738298256097    3.75659198637923    1.59386248204214
C         5.27161300113680    2.69850633983149    0.79590590099091
C         6.34342974557384    1.93597312508628    0.15268341068752
C         5.82687781836824    0.47885563510848    0.06996866648287
C         4.48379189757058    0.47085109875202    0.94818172346303
C         4.39034526794860   -0.85391948490611    1.70621039506842
C         4.09507924735915   -1.79870201416933    0.53007435599356
O         3.52617722317799   -1.12214642361856   -0.61790498485892
H         1.06389427795162    0.35961858241390   -0.38706948998537
H         1.38517995962607    0.73473890905375    1.26901016850437
H         1.52773793980708   -0.95294585154466    0.62245151204792
H         2.59703570940452    2.17105558906591   -0.90716452425681
H         4.26983746351905    1.81733843093901   -1.28913345837556
H         2.35064207139771    2.90232546318409    1.33712681243979
H         3.33119127131934    4.54492091867473    2.58307474178560
H         3.76248326418623    3.78556697023268    4.55588262683743
H         5.46349777052099    3.64501910396534    3.97258719341761
H         5.29610548792600    1.33294730880040    3.71303991411448
H         3.73192710860127    1.24577031754920    4.12027933841374
H         5.86372258718335    4.63152058294851    1.53267108267543
H         7.20313242665277    1.98179494687420    0.83175402742692
H         6.63693816524637    2.32535352523038   -0.82766091222562
H         6.55617734584819   -0.16554778237632    0.58223884809345
H         5.67018668379818    0.06532482992512   -0.93133757270300
H         3.63426914789092   -0.83725950929106    2.49595954185060
H         5.33777242959933   -1.03856603810921    2.23109861123209
H         3.41809155747226   -2.61465050698734    0.81555574811563
H         5.05579555521818   -2.28628993973172    0.35199231932280
