36
 energy: -47.840784321994 gnorm: 0.129968319895 xtb: 6.4.1 (79825abcba525fcdf90b791dcacef51065a7a4e7)
C         1.71845251238451   -0.01706066760157    0.43846509618239
C         3.14514698197016    0.15650702009734   -0.13194335917353
C         3.50830471997639    1.55404970606239   -0.59856378691308
C         4.20057471654136    1.81465372167638    0.80921387418157
N         3.40015818208363    2.33468120469485    1.91076625476791
C         4.01301637266251    3.63530451288185    2.31114242535308
C         3.95731607708682    3.85393201949965    3.85977830882044
N         4.67951279182045    2.82762461816336    4.62778269930047
C         5.41240525384391    3.52389410825649    1.75103189701893
C         5.48362401894957    2.45902573155017    0.96462560392708
C         6.46341810012547    1.71920714895512    0.16671882323662
C         5.87021994096493    0.29373397412977    0.05269611097752
C         4.48827961831793    0.32055827199553    0.86800185992274
C         4.42897903572831   -1.03195390602484    1.57902300846386
C         3.82396100951749   -1.87235659759857    0.44290304769105
O         3.50235454852511   -1.09569690815599   -0.73718279032451
H         1.18130668737799    0.80756389473957    0.91945347175523
H         1.80708031621913   -0.93503448213156    1.02133450800873
H         1.11939979496347   -0.22254369381735   -0.46085262011854
H         2.61341241234648    2.14085339387991   -0.83230685534533
H         4.11338433858062    1.53615169767577   -1.51632534640944
H         2.39792539388182    2.48402170882253    1.76771297472921
H         3.46738478006854    4.46369084960699    1.85185061889760
H         2.89430789356532    3.93521769679598    4.11384357627357
H         4.33441256974224    4.85085442745957    4.12670654137032
H         5.65022393528164    2.80497442840405    4.31158617190565
H         4.36253376544979    1.91040568289069    4.30570877713682
H         6.20678167628273    4.19060527855983    2.04430316549796
H         7.48591434710762    1.66895280584499    0.55953070573670
H         6.56542850308180    2.20902044746636   -0.80719908028247
H         6.50114284326922   -0.44060196815546    0.57446361350130
H         5.73267148660890   -0.00447161827876   -0.99149155182865
H         3.85234753976873   -1.04458711417549    2.50798421190620
H         5.37385262808850   -1.50556537466250    1.87923346319015
H         2.91794452034498   -2.43247870030769    0.70932614182707
H         4.64503476125671   -2.51055750753496    0.10978366162923
