36
 energy: -47.845820611964 gnorm: 0.126019457809 xtb: 6.4.1 (79825abcba525fcdf90b791dcacef51065a7a4e7)
C         1.77220269142206   -0.11073318076142    0.48799693708553
C         3.13851309193409    0.21095058701428   -0.16058924791040
C         3.29557642804273    1.70663483211300   -0.36308222796629
C         4.13647265910654    1.77861258917995    0.98476889150663
N         3.46161094292991    2.37200537556727    2.13235734600761
C         4.03975454749222    3.72852062296468    2.36286433686913
C         4.27436899449751    3.79145099650362    3.90888158704855
N         4.76116820689359    2.52762092371526    4.48374310076541
C         5.35959880967499    3.60034537428770    1.63760066542970
C         5.37456955707367    2.51427730465810    0.87754580360265
C         6.43736695147821    1.76084890401957    0.20912207349015
C         5.88113414726033    0.32427006714569    0.05515717542888
C         4.48435483143042    0.30281601172392    0.84493509815008
C         4.30127600362383   -1.08071672824428    1.46997579808162
C         4.01206012481203   -1.83447733597089    0.16181253324305
O         3.51014106079672   -0.97042557804192   -0.88734206124796
H         1.05206676821990   -0.20879762696337   -0.33155704329556
H         1.26842875192653    0.52537599153102    1.21727362389974
H         1.86032076495512   -1.12083707716563    0.91435957709347
H         2.35341908846303    2.26112095983217   -0.43157487306593
H         3.87106073668041    1.99642102591057   -1.25390750107568
H         2.45088239506851    2.39689551380447    1.97409929940057
H         3.34655475178554    4.47639224919461    1.96910206344524
H         3.33437503549821    3.96382921816958    4.44538881050889
H         4.90247093711755    4.64541143592832    4.19792522368275
H         5.39405871110498    2.07583989980839    3.82183909726139
H         3.94054769040567    1.91923650621097    4.43960407822231
H         6.05670598299993    4.40674602581119    1.79667664671856
H         7.29724710956215    1.74230523269611    0.88925986499756
H         6.61444593255254    2.23054147520529   -0.76395095564667
H         6.47259660519494   -0.49257458295100    0.49389540868444
H         5.71074006320450    0.04045309785255   -0.98819691473052
H         3.40324327372565   -1.02689116336052    2.09148393196432
H         5.19708983526749   -1.49962098007090    1.94878367451370
H         3.21267889210398   -2.57310105819556    0.30675576255572
H         4.97065941101704   -2.28419782829108   -0.10515170896395
