36
 energy: -47.835944514393 gnorm: 0.144838410973 xtb: 6.4.1 (79825abcba525fcdf90b791dcacef51065a7a4e7)
C         1.83087761783487    0.00773347443130    0.45720379094266
C         3.23010861585360    0.16735182526533   -0.18125000548857
C         3.44429852781176    1.63397999262167   -0.50662398751729
C         4.24117815899678    1.80472545806254    0.85895976824905
N         3.48541589741068    2.34939793526196    1.97997189118721
C         4.00804117609933    3.71694493306444    2.27013609796809
C         4.02708271592773    3.82362338605757    3.83136341542337
N         4.61385071456478    2.67974919508018    4.54687782696175
C         5.38414717540304    3.64613578883581    1.64905343396143
C         5.48033449971651    2.54398922110231    0.91866135674331
C         6.43576897383471    1.72410624704274    0.17105177105613
C         5.93723726826893    0.26348438261751    0.04894964119247
C         4.54925424994567    0.31355050060519    0.85281443700779
C         4.31265264134054   -1.04784645079912    1.50777617903596
C         3.82043154149812   -1.92913731082718    0.34840700309515
O         3.54191579623823   -1.09047761303504   -0.79977088796983
H         1.57161343086324   -1.00030177618593    0.79856596879934
H         1.07189553695475    0.20892353367404   -0.30025005160649
H         1.76914324229569    0.77732068609242    1.24064758469074
H         2.51765842222126    2.21784546438689   -0.52230381150770
H         3.89257714891910    1.87098393994572   -1.48212559019663
H         2.51021172447100    2.05416861769695    2.07512372657183
H         3.37022678586291    4.55251481357791    1.97029862616504
H         3.01029544792808    3.96312226081630    4.21584571234494
H         4.57663474699772    4.71564986631479    4.16240428356943
H         5.46787866761658    2.41390711841157    4.05419370407647
H         4.08138883936660    1.81179492452862    4.63981666216435
H         6.22268748445502    4.26091319796208    1.93268103420109
H         7.43425386976295    1.77783440886730    0.62101448679793
H         6.42829185497186    2.17828370005212   -0.82519428486060
H         6.57288405562053   -0.48125951314751    0.54981290864524
H         5.65257717215365   -0.07577368863307   -0.95207314735397
H         3.54047252219034   -1.04554992188178    2.28196284544742
H         5.16507395540005   -1.48792627999224    2.04343269437096
H         2.95374872943269   -2.49980245032763    0.70727483163668
H         4.62247164357680   -2.63890963668087    0.13536720057618
