36
 energy: -47.848397234971 gnorm: 0.124833351697 xtb: 6.4.1 (79825abcba525fcdf90b791dcacef51065a7a4e7)
C         1.78592728288192   -0.01751995227331    0.44071016596490
C         3.20698492905080    0.17582008282592   -0.13735855110936
C         3.42884438010367    1.64323829783071   -0.45391167317687
C         4.12329219190602    1.75994611766584    0.97196056464364
N         3.33710265956412    2.37014506028478    2.03689067549972
C         3.90840349505649    3.72764097602377    2.27842207944161
C         4.24326052815851    3.76574025153784    3.80668671749671
N         4.79590375833813    2.50984010860774    4.33772909360877
C         5.19452085788555    3.69812255079776    1.48503938561150
C         5.32014328230019    2.55480017901015    0.82588495105901
C         6.40535084417733    1.75096198118205    0.26006528698308
C         5.91728759487179    0.28172700496100    0.26142662266297
C         4.47461225170982    0.27837085666018    0.96419164165915
C         4.25087646215371   -1.09269993947913    1.60330354422459
C         3.94296132189897   -1.90288549944363    0.33370530365298
O         3.69624481942434   -1.01086505253057   -0.78104312732598
H         1.61300554828039   -0.83764454305957    1.14595824193548
H         1.21349871845595   -0.16914731688369   -0.47558795235459
H         1.44839357937914    0.85447642629463    1.01997962060189
H         2.51573689183121    2.24493955102551   -0.51713300722255
H         4.04331305124725    1.90425272956176   -1.32742622436914
H         2.33284504901791    2.38257525561021    1.84055033309903
H         3.31069558720794    4.61304924054434    2.04672360912730
H         3.30299934627370    4.03679954617930    4.30022362973113
H         4.92138420501205    4.59530523203859    4.05015529899868
H         5.69951918588943    2.41748295055454    3.87112142958186
H         4.22914033777952    1.73950375145767    3.97598469434677
H         5.88214315116407    4.52796284593246    1.49433322831735
H         7.27391803313740    1.81934651254483    0.92582788200513
H         6.80286724636407    1.89721955322400   -0.74960233662192
H         6.61697726524701   -0.30585181162985    0.87358657912186
H         5.80735149947426   -0.12351845064724   -0.74944636924164
H         3.33899534513642   -1.15830980219844    2.20313733592056
H         5.08731310436723   -1.51106696729196    2.17998632176810
H         3.01044302188454   -2.46305519732675    0.48271350236012
H         4.74418850309281   -2.55044439023629   -0.02841832654240
