36
 energy: -47.848717178375 gnorm: 0.136858367406 xtb: 6.4.1 (79825abcba525fcdf90b791dcacef51065a7a4e7)
C         1.82016109555185   -0.02102778390202    0.35212803684388
C         3.25793212491295    0.06304358900196   -0.21062868230014
C         3.54041584810163    1.50045620288651   -0.60659793266380
C         4.03144008331460    1.76690316079045    0.88232496198940
N         3.24488447356862    2.42228005263525    1.91978548218697
C         3.92323679507961    3.70472432612146    2.27005975646295
C         4.09489051011099    3.85513959377249    3.81831163093578
N         4.91265163141358    2.83193235506945    4.48840074331476
C         5.27079301620092    3.60486053835424    1.59290039825283
C         5.29608468145379    2.46323469387936    0.91947451223246
C         6.31955040169426    1.74869683794714    0.15400941601929
C         5.82958060927697    0.28078177673055    0.19888707095103
C         4.42616822939802    0.29932074734461    0.97689228068492
C         4.23869186770215   -1.03828441306219    1.69384551643637
C         4.02486217334572   -1.94761249743345    0.47298869418187
O         3.62857455656910   -1.22731719689843   -0.72005966501652
H         1.80989027134424   -0.92185346499200    0.97525621154433
H         1.04195737233448   -0.06871929188159   -0.41101811450275
H         1.55634305965442    0.86585374370883    0.94685569561846
H         2.59940507081082    2.02341047083931   -0.80864788520626
H         4.28716288013588    1.74272218562145   -1.37627580730331
H         2.30985147753211    2.67500755603121    1.58951362040720
H         3.41994187802972    4.65149804956239    2.05745571961213
H         3.10485023435317    3.92557201443303    4.28307226730736
H         4.69384477310243    4.76563674345185    3.95815248223491
H         5.80296951702259    2.71438564146242    4.00230380588965
H         4.38488892807606    1.95710649818941    4.44785275739369
H         6.03972498685075    4.36002111954213    1.59757588036682
H         7.32362850273979    1.76038865758728    0.59448157923061
H         6.47585210145753    2.17578321926955   -0.84198571064153
H         6.58805257323628   -0.34037294301033    0.69732605437322
H         5.66466742479858   -0.16942568393379   -0.78513067475412
H         3.33206768073747   -1.03734929955901    2.30512623798393
H         5.02392424570127   -1.30198226434452    2.41571379921063
H         3.35937880114064   -2.79404538880011    0.68808672101903
H         4.94742213646112   -2.48440946020808    0.24241728358341
