36
 energy: -47.842202660864 gnorm: 0.126324369376 xtb: 6.4.1 (79825abcba525fcdf90b791dcacef51065a7a4e7)
C         1.66510900967418   -0.12087297796421    0.21058910316225
C         3.16378929513988    0.04972957251538   -0.12970612209692
C         3.48437547221852    1.46694470205834   -0.56727841247703
C         4.10162981916391    1.77306515490135    0.86599668453790
N         3.33692628946516    2.42722362829234    1.92042454419864
C         3.93619580112901    3.74918888573256    2.26798915446560
C         4.05714296113786    3.84636842638470    3.82526290284980
N         5.06208668566529    2.96846706573964    4.44500722992506
C         5.31436053297004    3.58359279356956    1.66993796055617
C         5.33234459731381    2.52865969272428    0.86728961198439
C         6.40026866582215    1.78628667249412    0.19467998943564
C         5.88249506723128    0.33022177866364    0.28765601689872
C         4.42509170584890    0.28798780992302    0.95802444537055
C         4.30478864214722   -1.05557264816192    1.67825312129172
C         3.89579831485716   -1.93892716440479    0.48850365623960
O         3.63655037322753   -1.17371013298808   -0.71418790014583
H         1.44121877363701   -1.02273106718353    0.79059451182317
H         1.04140066459113   -0.14679952773989   -0.68416409232495
H         1.22065480203147    0.65630555852223    0.84958344800220
H         2.52879184409277    1.97884792563157   -0.72419129559013
H         4.18788627475003    1.47638250899761   -1.41209285736980
H         2.33971629613176    2.54518325626907    1.72320600005723
H         3.41421905330487    4.66107807606009    1.96651757982187
H         3.05153067120281    3.53868989623720    4.13384151666353
H         4.24259023638907    4.87926281974922    4.15090874133944
H         5.93510760632395    2.99587241622440    3.91599227925190
H         4.73306842349403    2.00549334202143    4.34537550931915
H         6.08609811454124    4.29438141796681    1.91640574100287
H         7.34767777664395    1.90743604417991    0.73325593978433
H         6.64997917682016    2.01327129349311   -0.84693506965485
H         6.62283199947367   -0.34136910690771    0.74637295749830
H         5.74349023060983   -0.14108674877819   -0.69046460904300
H         3.55047867067375   -0.98502601288123    2.46671494362133
H         5.24929156012061   -1.35251111052617    2.15465845566374
H         3.05854638681193   -2.64262575597548    0.58546458139761
H         4.77531857315855   -2.54998354660016    0.27523094501157
