36
 energy: -47.834605673875 gnorm: 0.141775302122 xtb: 6.4.1 (79825abcba525fcdf90b791dcacef51065a7a4e7)
C         1.83392196173242   -0.11385035657529    0.92421272229567
C         3.03804873884181    0.08888843746869   -0.02443066687959
C         3.30702114663924    1.54157185818408   -0.37099722946707
C         4.21705601563930    1.78086480006151    0.91101889370750
N         3.44646078947391    2.40372759702957    1.98000791560280
C         4.08372956065264    3.72766656354215    2.24190720588050
C         4.08123927940337    3.87423665392944    3.80001006088262
N         4.26635262187648    2.58293528560037    4.48043603767157
C         5.44056109966512    3.61953276733136    1.58483764074154
C         5.47778218518581    2.48515682564594    0.89981415687016
C         6.48869195220140    1.74531658790713    0.14173711666048
C         5.75660644849337    0.44102701957762   -0.25793577642894
C         4.51684358310447    0.29662260218664    0.75069562906177
C         4.53884167080107   -1.04785513378981    1.47887985784782
C         4.07986169820723   -1.92351539818754    0.30174414438640
O         3.36668453033559   -1.14152857826444   -0.68775496597867
H         1.40920817372358   -1.10121203643105    0.71298720249399
H         1.15379311192712    0.69614735986489    0.65663843487856
H         2.07546516900588    0.01861804067172    1.98909242311162
H         2.49538292369221    2.27577655028232   -0.41564509529892
H         3.95276921575417    1.62921313506857   -1.25646678792323
H         2.42921973389450    2.39389722457757    1.86882647083027
H         3.49702340091517    4.47767440258091    1.70511042920231
H         3.11972197836552    4.32627173656502    4.06888114224077
H         4.83026550216344    4.61426521444540    4.11405488608488
H         5.24469190294668    2.30487109194773    4.57157301294858
H         3.90442066767088    1.88610367893856    3.82550943353298
H         6.28071827635233    4.24322785876930    1.84307384767106
H         7.35813147114413    1.80283747368014    0.80738825791868
H         6.67703204258444    2.23433949783005   -0.81962847521895
H         6.42996082035028   -0.41333319535812   -0.09601982434624
H         5.44703152557335    0.48097080012714   -1.30709822167388
H         3.79193970470407   -1.09060296123110    2.27633983032408
H         5.52663225764174   -1.36974130831118    1.83648189917206
H         3.51512160618098   -2.79048094542144    0.66919926254911
H         4.87078588400979   -2.23279677273717   -0.38470686055771
