36
 energy: -47.843537875709 gnorm: 0.139422129418 xtb: 6.4.1 (79825abcba525fcdf90b791dcacef51065a7a4e7)
C         1.78717826219183   -0.13547133454960    0.42925951744123
C         3.17998673349382    0.12986790274724   -0.18769130157607
C         3.43128722158407    1.56585114866936   -0.60905090905411
C         4.01109090156015    1.91343572007710    0.83039441097886
N         3.26164758968612    2.58057033832617    1.88764510644826
C         4.03848453993873    3.75265374181789    2.38790713203368
C         4.35440713171053    3.58189611120080    3.91113014632504
N         4.65371445672043    2.18173591682235    4.24976309229282
C         5.36097268452239    3.66751127783592    1.66113262095630
C         5.26086465667317    2.63706670854525    0.83311449733915
C         6.32256389478459    1.86295091247854    0.18695455026962
C         5.81109661725228    0.40513818502021    0.28716578968120
C         4.35993139112377    0.43798139490306    0.97144855959087
C         4.21109264226234   -0.91181545646134    1.67447941131437
C         4.07183731526974   -1.84946147849939    0.46430588070269
O         3.63206855934882   -1.12790140143537   -0.71263425346579
H         1.60530647427635   -1.20687532999321    0.56672680117546
H         1.11418672836153    0.33725944285504   -0.28759163224654
H         1.77976707491583    0.31197418004838    1.43404674619475
H         2.52098350819716    2.14511113492898   -0.79776141286343
H         4.17879610755566    1.69264817854884   -1.40521731481744
H         2.39434893381227    2.86446209264801    1.42457286748196
H         3.57909833197584    4.73515175480506    2.25171353619781
H         3.49775878537132    3.81544285534104    4.55358827571772
H         5.16855418274639    4.21780947315802    4.28541013268593
H         5.42275938834795    1.90737951968233    3.63651611213898
H         3.84196266325129    1.71057655008273    3.84409603061824
H         6.18714881121404    4.35023482238875    1.77456673080495
H         7.25107487888890    2.03348698197129    0.74472694550891
H         6.48360953339749    2.14421009543719   -0.85889288539425
H         6.56199414352958   -0.30335808426096    0.66629672736740
H         5.80874800329467    0.02424583098943   -0.73903571704273
H         3.31547293809733   -1.08073108940842    2.27860296709923
H         5.09344014801913   -1.21936232099455    2.25249158013504
H         3.38975781507484   -2.67771760199161    0.69742230877815
H         5.02379451737031   -2.31206352402892    0.19559065441053
