36
 energy: -47.844500161844 gnorm: 0.142450519581 xtb: 6.4.1 (79825abcba525fcdf90b791dcacef51065a7a4e7)
C         1.77091651341362   -0.02064271918876    0.53086206403716
C         3.14862862734219    0.10853008611839   -0.15919038042724
C         3.36650176225513    1.56017693760080   -0.54389344027047
C         4.20441814151977    1.83862219010090    0.77873823090457
N         3.36632853114812    2.46445803160061    1.79384817166627
C         4.01271266447737    3.73537608474930    2.23483808248231
C         4.06664513253385    3.70809985920899    3.79865422183437
N         4.64784386525131    2.56276291501576    4.51637077285517
C         5.38248414991780    3.56106554745946    1.62021034179902
C         5.48332959321748    2.50807749738326    0.82114963042249
C         6.48365597278909    1.72412782087842    0.09399540124024
C         5.92261391988550    0.28146258675351    0.12241820249044
C         4.48586428887701    0.34322124959119    0.83455475054840
C         4.27303033274260   -0.90305712910724    1.69469936674544
C         3.97343682204636   -1.83954245431039    0.51303485240734
O         3.55969697131403   -1.15796575873264   -0.69671971700414
H         1.81272134112043    0.61744097020542    1.42023413613693
H         1.45815334791592   -1.03169549614373    0.79585083654067
H         1.01895865404320    0.31681038087179   -0.19752284199818
H         2.42404165157782    2.11241004405415   -0.62522098176078
H         3.99709927786476    1.71180658564350   -1.43163393383414
H         2.36445505590848    2.52778201317030    1.59515994597612
H         3.46985000737510    4.65799705227318    2.01357483795404
H         3.07284386481878    3.91016764693076    4.21419071081159
H         4.58865555036816    4.63399399854920    4.07709972764997
H         5.51792096776950    2.15723831076260    4.16810502153504
H         4.00160324332111    1.80405957056814    4.28780965780738
H         6.15700347004043    4.25818656452370    1.89532458186484
H         7.45100947952309    1.73617801521688    0.61014192807951
H         6.63061700400911    2.22969894995902   -0.86602520752844
H         6.61549478110007   -0.38376313908634    0.65809083399014
H         5.87641261653978   -0.04392858824660   -0.92168909928669
H         3.41166187548983   -0.91166770017954    2.36819965951406
H         5.13691741435219   -1.19935961941292    2.30553829294507
H         3.24085487768813   -2.59598191123657    0.82401227283091
H         4.79442816056380   -2.46740587395069    0.16062630801225
