36
 energy: -47.842160619146 gnorm: 0.146500052030 xtb: 6.4.1 (79825abcba525fcdf90b791dcacef51065a7a4e7)
C         1.73070226600162    0.09475117683721    0.34133909878505
C         3.15019512548468    0.24846314714751   -0.25226114765516
C         3.36416598048397    1.73167582942780   -0.49109220491275
C         4.08225823435883    1.92796308889521    0.91418525506314
N         3.30503739377165    2.53884938214135    1.98528669523973
C         4.14682249991952    3.65526924253502    2.50732275295762
C         4.32589305627856    3.35043092822882    4.03184918572059
N         4.63946231028563    1.93582326459871    4.28731966755603
C         5.45703161425946    3.58561885045852    1.75703876735460
C         5.36970901756545    2.58195061224569    0.89536818151415
C         6.41559961944444    1.87328823646069    0.15516995137157
C         5.79263113543322    0.45844875101208    0.07151363377015
C         4.39628110764998    0.43892721398207    0.86210038325895
C         4.14419215611659   -0.89183857476387    1.57193849253113
C         4.04602831198793   -1.81397629851735    0.34592141518092
O         3.59248636369097   -1.01417875072735   -0.77383620640614
H         1.58638135120751    0.70069947651543    1.24238251651726
H         1.58188983926783   -0.94986629481700    0.61864173498448
H         1.07892615541446    0.24088653260851   -0.53255571058530
H         2.41370155029398    2.26677368495374   -0.39062217230772
H         4.06924474581918    2.16822473226055   -1.21290720275992
H         2.37716392317983    2.87435029200841    1.71375901617446
H         3.56103263888639    4.54906779790705    2.27740746989838
H         3.34945744565833    3.52026221164964    4.49968861284772
H         5.16084063218281    3.93560669654892    4.44140818313256
H         5.60055591222590    1.77146074460221    3.98390997055389
H         3.98156423344085    1.37980464886314    3.73640106760620
H         6.37392706458980    4.10519036665889    1.98263522940879
H         7.36603125975661    1.87155926296254    0.70198058758657
H         6.55656089817665    2.27927883964794   -0.85187559813749
H         6.42521872309200   -0.36203607627478    0.44055543348615
H         5.59210222574521    0.25323056163919   -0.98482325744096
H         3.29987488675890   -1.01111296970161    2.25643413486637
H         5.03934491517530   -1.17305969489808    2.14363456461685
H         3.24487577688884   -2.55029726516807    0.49278851480287
H         4.95342025875550   -2.37840688745306    0.12122388592512
