36
 energy: -47.840665988553 gnorm: 0.125960492387 xtb: 6.4.1 (79825abcba525fcdf90b791dcacef51065a7a4e7)
C         1.68706411814429   -0.15615409083429    0.34913211042717
C         3.11942175099140    0.12687820987619   -0.15997788479218
C         3.34337285326657    1.61639082618545   -0.34421085977601
C         4.08328195290190    1.72322549800293    1.05939555947642
N         3.38134784390311    2.40107374304153    2.14213429364541
C         3.98875629095367    3.74389943054050    2.37748801499628
C         4.39181457415066    3.90886709223339    3.88065243708374
N         4.82493868157818    2.67879095532601    4.56184398023353
C         5.32420858778804    3.62921304886633    1.67903293916707
C         5.30338056409262    2.49323834688736    0.99596686351775
C         6.38027308850341    1.74034257251207    0.34987583775967
C         5.74443003886353    0.37311028742037   -0.00117756403769
C         4.42162620852557    0.24734776757050    0.89858678647245
C         4.42278595383472   -1.20863826237554    1.36598407812349
C         4.05638911955549   -1.93320081812133    0.06066628898918
O         3.58856684965585   -0.98843918501558   -0.93321567469534
H         0.96407696278908   -0.08746529502292   -0.47089992740692
H         1.33539858440639    0.53844380178650    1.11341784466319
H         1.67078747032516   -1.11766765951315    0.88306704681529
H         2.46924403734049    2.26668030538877   -0.45747619878354
H         4.00799169666816    1.77605444281418   -1.20532483493217
H         2.39963951238518    2.50776635167310    1.87361461138359
H         3.38103803136867    4.59162625287873    2.05049493877917
H         3.64155972278433    4.38210813047161    4.52431655242097
H         5.20019086576949    4.65306581114331    3.88231463927736
H         5.10489975928407    2.02798534717535    3.82642080053517
H         3.99791363243398    2.24265481464543    4.97574339229025
H         6.08493329157301    4.39046389581133    1.73683241223008
H         7.17249116908276    1.68271033589151    1.10578209484964
H         6.72206199102124    2.32574365417995   -0.50996437095418
H         6.35710535439703   -0.51938966252339    0.19279952049923
H         5.42079072032957    0.40084099224257   -1.04648260199740
H         3.64324195434002   -1.44014740947250    2.09697454939553
H         5.41093613089212   -1.45294881153525    1.77961655790512
H         3.21873086531395   -2.61777305360910    0.24847847850721
H         4.97259787370320   -2.46940608042812   -0.19521741726400
