36
 energy: -47.842233728879 gnorm: 0.132481847900 xtb: 6.4.1 (79825abcba525fcdf90b791dcacef51065a7a4e7)
C         1.78391459443408   -0.02500540859148    0.40599816500579
C         3.18964416089282    0.13776231267467   -0.21720302042892
C         3.28598892836234    1.60383729222795   -0.59678908217528
C         4.07230353262286    1.89235172140176    0.75504632021614
N         3.35690344714908    2.42360625231513    1.90851250845734
C         4.09200347918147    3.61174366633417    2.43336933564870
C         4.33388288257677    3.49354913120932    3.97502365378482
N         4.55559789224763    2.17286933964147    4.58441111279718
C         5.40376700457609    3.53592061947800    1.68640704640579
C         5.35463937245398    2.55533894069710    0.79562216177872
C         6.34027818354758    1.98711383571775   -0.12612596105501
C         5.88962252267255    0.51227434721015    0.01031809638142
C         4.49604355033433    0.43056901397320    0.80181288348727
C         4.24223406323424   -0.82239912143109    1.64086500200635
C         4.02958812329627   -1.85012806667737    0.51763439666414
O         3.63554639603855   -1.14455604939194   -0.68491823189834
H         0.99165391188940    0.22059840710164   -0.30946175686703
H         1.68234688624390    0.62588861281592    1.27564667931826
H         1.69825653656336   -1.04989440489418    0.79603025630445
H         2.33485756123069    2.13207359670155   -0.72376220898954
H         3.91437804859190    1.92352348255720   -1.44038603506877
H         2.33779359868419    2.42106325965426    1.81552833238032
H         3.48861182060578    4.50144373404891    2.23528088461872
H         3.50086891494368    3.90354037680063    4.55737907324211
H         5.20856810294800    4.08953294065819    4.27004196090686
H         5.44332370800946    1.74389457751910    4.31852216672448
H         3.84002451397469    1.54032376720497    4.21925535088582
H         6.18811087368160    4.10615735304331    2.15670536094627
H         7.38492657488211    2.21847631646886    0.11367896584869
H         6.18064124773090    2.46380261551356   -1.09881457263605
H         6.68184766534408   -0.00677301642091    0.56935609177507
H         5.85180470764678   -0.05498287305224   -0.92507652612461
H         3.32377751705464   -0.64928657688492    2.20840532571917
H         5.03574367250585   -1.11651791293614    2.34161951913258
H         3.22936379093140   -2.53799838045454    0.82104725952846
H         4.95758013932804   -2.35366421783671    0.23886352219372
