36
 energy: -47.851418106599 gnorm: 0.120234547404 xtb: 6.4.1 (79825abcba525fcdf90b791dcacef51065a7a4e7)
C         1.75670989635377   -0.03753780836345    0.66022004518747
C         3.11072953126009    0.12753669770913   -0.06801732617171
C         3.41609169004703    1.58113202307908   -0.37875528579618
C         4.17340468405886    1.67556194346485    1.01643289685015
N         3.48985947172598    2.33010111462715    2.12497124155823
C         4.11956093060262    3.68041039002476    2.21248217508235
C         4.07963843006159    4.13292623333688    3.71008333649111
N         4.33805005937884    2.99034136842552    4.60026813997396
C         5.47464322686527    3.49162374657341    1.57019180205844
C         5.43038862134229    2.37019499849942    0.86457807095269
C         6.38734502653467    1.68588150684086   -0.00716311486607
C         5.91413164680909    0.22380742305500    0.18063313420798
C         4.48234062476618    0.18876154966905    0.90447580379920
C         4.32189065573935   -1.21049175697586    1.50004506413870
C         4.09818941281731   -1.91872017912397    0.15413932727201
O         3.40562959500338   -1.07367534019922   -0.79743496464978
H         1.85298698112551    0.38348345793953    1.66687434131815
H         1.47176718365538   -1.09011103530314    0.69434856500226
H         0.90554852646549    0.41779654531882    0.13291115303620
H         2.49591159026417    2.17118963822359   -0.44880638599197
H         4.15513387050853    1.73684323897129   -1.17769117478321
H         2.47921150328902    2.39542961041429    1.97813716778073
H         3.61327738401286    4.51543420133131    1.72126029003075
H         3.07665722686619    4.50175731525649    3.95326077691185
H         4.79068803808764    4.93682057910727    3.94560207983934
H         5.33679997539144    2.80901515277624    4.71159113970537
H         3.94609691426694    2.17999368916413    4.11528642761850
H         6.27707595920089    4.19298818259441    1.73061431862709
H         7.45451395800207    1.83301899218851    0.19735163050246
H         6.23182740549722    1.96376811723750   -1.05474727547986
H         6.61206186668692   -0.30822105905930    0.84350068048015
H         5.99420539682975   -0.26357103097179   -0.79621098159535
H         3.43014451388302   -1.25634255989248    2.13117014434026
H         5.16383268275842   -1.53614587021654    2.12638619430471
H         3.44594883209529   -2.79744606732915    0.24362074233431
H         5.00250004328873   -2.26470773121370   -0.35078234992424
