36
 energy: -47.845009042105 gnorm: 0.141317207034 xtb: 6.4.1 (79825abcba525fcdf90b791dcacef51065a7a4e7)
C         1.78899385260624   -0.05973006632733    0.66775154440239
C         3.12202069306451    0.13693234573641   -0.09074166257312
C         3.36110114329763    1.57547370330795   -0.51048321434296
C         4.12130388086031    1.77057398540934    0.87263557236452
N         3.34370019673645    2.46887998009510    1.88861481551495
C         4.06457097349107    3.71926103767896    2.26862747541651
C         4.14973095875246    3.83791727420988    3.82678085681920
N         4.56459527242905    2.66528893361884    4.61261547807245
C         5.41069109066373    3.55574903747610    1.60105755053954
C         5.38950288581305    2.46114501064401    0.85349856561056
C         6.31410136124200    1.75084057859983   -0.03225997945146
C         5.82222494655898    0.28509128100704    0.04833449176637
C         4.46734686815347    0.28816544380523    0.90827510279645
C         4.37481363329324   -1.06549179583256    1.61354543646396
C         4.09663638284614   -1.92251166279794    0.36806305468302
O         3.51022360362015   -1.11322410860881   -0.68093992705926
H         0.99287177253621   -0.04785689713053   -0.08453149585720
H         1.56661792232523    0.66928327941604    1.44836414957304
H         1.74786542981784   -1.06851607015176    1.10423640032042
H         2.51109410726143    2.26548816200077   -0.54475647142047
H         3.96536077473602    1.75468871996670   -1.41130515542190
H         2.32302069685272    2.47825084997938    1.96184623278065
H         3.72407142976562    4.68222961816137    1.87921995134770
H         3.18603907804454    4.02466020053444    4.31419026176253
H         4.81041391870606    4.68807365109209    4.04595855798996
H         5.55974746668280    2.55571015911801    4.41152346974560
H         4.13728593600649    1.87640507122346    4.12213931514944
H         6.15806278772388    4.32745769544857    1.68735283219605
H         7.36821152068009    1.91702384531407    0.21985121404721
H         6.25061564546809    2.13304167130216   -1.05633570112912
H         6.48513402611160   -0.46638486405606    0.50153358287704
H         5.63708440193357   -0.06134574720272   -0.97336915431123
H         3.63282436786683   -1.15255877383664    2.41198365861503
H         5.38862277366975   -1.22052518664993    2.00772288039761
H         3.42958402785391   -2.77959511878443    0.52941050569267
H         5.00864986973935   -2.27198507778907   -0.12033304398318
