36
 energy: -47.840369116216 gnorm: 0.130963529463 xtb: 6.4.1 (79825abcba525fcdf90b791dcacef51065a7a4e7)
C         2.05694976561730   -0.56234555079510    0.90760934293228
C         3.19708574940081   -0.12552857650973   -0.04119491881241
C         3.12707479491114    1.34919097298494   -0.39197183165735
C         4.05619108642199    1.72542628301799    0.84260504689045
N         3.34741391975810    2.17968764904179    2.03247665618122
C         4.00101050578157    3.43534104653816    2.50540718767388
C         4.27564350573599    3.24476495301795    4.03427313222954
N         3.96256010356025    4.34507127115532    4.95948149374285
C         5.30080399487647    3.40274712334606    1.73475821061134
C         5.21789466597549    2.57220963262105    0.70481396129470
C         6.07916683985374    2.12969583247856   -0.39353707359326
C         5.81667158440290    0.60395043019550   -0.40103516052078
C         4.65133254847425    0.33468130125206    0.66886257684970
C         4.88124864264183   -1.04366936110186    1.28986572716803
C         4.46370981008010   -1.92775740667978    0.10363567833647
O         3.64916282610080   -1.21526621776440   -0.85974539678589
H         1.07499311525694   -0.15170598278935    0.64873214324897
H         2.26321130958978   -0.28880209913578    1.94341710486616
H         1.95096723788218   -1.65351795377115    0.81833291987105
H         2.10114427452204    1.73000942034815   -0.43941144988584
H         3.65020690405449    1.42710631365932   -1.35581308371713
H         2.33268442250269    2.28222569842973    1.94852788576468
H         3.40986514972970    4.30518312642681    2.20739938237087
H         5.34864949033756    3.03853261299016    4.11953330714882
H         3.62519962747296    2.38826759256173    4.25931037868656
H         4.05471955493791    3.92192110440995    5.88426469573114
H         3.00192891717718    4.68574154733481    4.87806050680100
H         6.07996358815921    4.08554726232400    2.03181043479713
H         7.12888608895860    2.40494014623992   -0.23651695583661
H         5.69667419297770    2.63206239285367   -1.28805732912611
H         6.73309668290863    0.13980235723995   -0.00824269561892
H         5.70686168264539    0.10592804838275   -1.36958538356321
H         4.28977616991486   -1.24614319466076    2.18697055474788
H         5.91120306061101   -1.20303135490816    1.63774200598080
H         3.87379412585774   -2.74905006313225    0.53149286673471
H         5.26178696973619   -2.42537885986702   -0.45123077127360
