36
 energy: -47.847168107508 gnorm: 0.138712172022 xtb: 6.4.1 (79825abcba525fcdf90b791dcacef51065a7a4e7)
C         1.80534632069147    0.06306505935061    0.65611032001704
C         3.14084449347461    0.21714017931619   -0.10786227940941
C         3.44221646514345    1.65800701949747   -0.47640181981664
C         4.10105768958297    1.77384136505273    0.96633889972004
N         3.23963681424775    2.42988716096741    1.94208009985269
C         3.92526136181291    3.71380662842398    2.27221190540519
C         4.03944699144190    3.80272101070651    3.83048963145449
N         4.77590860202380    2.58445468547952    4.20218462590052
C         5.31197268014413    3.52146098561819    1.70259783253828
C         5.39461187052459    2.41587927975391    0.97574744461717
C         6.44359887494742    1.69229645543320    0.25461127288688
C         5.88022051822521    0.25089542009165    0.21186907193766
C         4.45244258459600    0.29244094033857    0.94325558481707
C         4.35941417996161   -1.10816562574098    1.54988877857996
C         4.03932631572724   -1.86906680291521    0.25309842475899
O         3.44212121144055   -1.02515118524321   -0.76198091562459
H         1.63068384650972   -1.01803484738762    0.68054654712739
H         1.03195432425890    0.51003874668956    0.02973431250548
H         1.78292072954907    0.49824940865836    1.66604668471284
H         2.52750578631472    2.16548886119373   -0.80132210304410
H         4.17755804859434    1.74451816118693   -1.28912350308185
H         2.37155872982951    2.67760056192330    1.46008851033069
H         3.41159555601110    4.58476425076895    1.85692046161002
H         3.01423915616542    3.75762866086397    4.21527332414298
H         4.54540120701641    4.70430665967115    4.20259227836743
H         5.77369890700959    2.79357595192042    4.14339516175818
H         4.51513583639257    1.73779758685321    3.69162883963822
H         6.09486662972374    4.22524889975879    1.93347736160850
H         7.42270606429369    1.74452536956842    0.74547429476111
H         6.63152476419174    2.10734213634855   -0.74100924758452
H         6.55305390674421   -0.45904151187290    0.71470015891437
H         5.75541610748537   -0.01174063873621   -0.84341297123105
H         3.50761904537989   -1.15987369366129    2.23355808827688
H         5.30460790974866   -1.43488307662545    2.00495445437276
H         3.31818609136023   -2.67053090087700    0.46093487374994
H         4.85202046417724   -2.39907966197794   -0.24794611048616
