36
 energy: -47.836701536720 gnorm: 0.148565682866 xtb: 6.4.1 (79825abcba525fcdf90b791dcacef51065a7a4e7)
C         1.80493474313264   -0.17717140791159    0.55097526557492
C         3.18329284977828    0.06651199520929   -0.10606048787608
C         3.48893327078777    1.47548884753072   -0.57946505808817
C         4.14602004220154    1.80033085699080    0.83181265739430
N         3.42486778353977    2.46431489408811    1.91050515087674
C         4.09239929585648    3.75493176511005    2.25142598319619
C         4.12211251530886    3.95279055909226    3.80356729085774
N         4.23797939748617    2.78469911622263    4.69060898903030
C         5.43762490204101    3.59552477702695    1.58106577456428
C         5.38995506081388    2.53276791636099    0.79003664758470
C         6.30692460957485    1.74112745369216   -0.03243246146657
C         5.85631523633164    0.27099421479303    0.14789630525541
C         4.46789686148326    0.31686224420995    0.95125962067255
C         4.33035136334025   -1.03537913470121    1.65188886318538
C         4.06456015101864   -1.96022846573392    0.45309746545072
O         3.61800908323689   -1.17577104550933   -0.68023932285512
H         1.65213809957273   -1.24687577891705    0.73060506568990
H         1.05159775542098    0.21240022079297   -0.13530812457021
H         1.74592812713669    0.48522926816175    1.42710502271351
H         2.62345283462448    2.09974640005334   -0.82655360963438
H         4.30225802572522    1.65459673533815   -1.29720537230172
H         2.43497198035845    2.60298223335444    1.69115370395144
H         3.49108668310140    4.58202955988689    1.86513709277103
H         3.15892444728498    4.39271443301835    4.08619540433037
H         4.83268437284999    4.75658691667412    4.04085569263775
H         5.24353750757610    2.67650844918665    4.83175099550340
H         4.08199006249741    1.89460560488206    4.21217533659828
H         6.25135929049970    4.29123679273656    1.70502893074092
H         7.38901466286462    1.81154444368141    0.13019538366775
H         6.25532719883423    1.97287386905018   -1.10129661764747
H         6.62038038208324   -0.41735402168809    0.53768532479401
H         5.66833871075681   -0.14453982501250   -0.84717671414436
H         3.44751741590033   -0.91227573494184    2.28519934624762
H         5.21822617156987   -1.39052610832770    2.19297037598774
H         3.32623522586127   -2.65817203395326    0.86943265940020
H         4.89115773000651   -2.51514748308927    0.00450816083295
