36
 energy: -47.835307427995 gnorm: 0.132143325904 xtb: 6.4.1 (79825abcba525fcdf90b791dcacef51065a7a4e7)
C         2.03968301174635   -0.67505877369633    0.53190522066187
C         3.30325890812511   -0.09432179687860   -0.14416369012658
C         3.13623063254555    1.41138600706390   -0.05647511141603
C         4.11891290239511    1.48221183777394    1.19184751317648
N         3.42524571175689    1.86078223596534    2.41660183841676
C         3.69556446125486    3.31988317345491    2.57619333636452
C         3.89860597426423    3.51018134714823    4.11623695247139
N         4.59162701231864    4.69663465687843    4.64231308788809
C         4.95860434403105    3.55096972656254    1.77885115346067
C         5.16612759655007    2.46590971143475    1.04602753027645
C         6.08696133776010    2.09049305248183   -0.02873324953765
C         5.98780614996515    0.54994773204705   -0.14598242403994
C         4.71156311923008    0.15355073898495    0.74242922045250
C         4.77552461933923   -1.33317842920201    1.09442660913469
C         4.40841985661794   -1.99732491871374   -0.24244870484018
O         3.79014739148900   -1.02619892681992   -1.12215720412121
H         1.18959884217216   -0.17904585012173    0.05106303849716
H         2.05359024860596   -0.46399320519061    1.60219746027642
H         1.85536605174698   -1.72573313182855    0.26363215009449
H         2.07800559438540    1.66513538223439    0.06833534323656
H         3.55622504969221    2.01278914208955   -0.87540545627419
H         2.43509373836427    1.66406108021632    2.24886026572308
H         2.80709384571144    3.86745703697080    2.25112481299683
H         4.52201893091430    2.65714663795773    4.40749454330251
H         2.97573897474935    3.49560052540255    4.71240020935201
H         3.95704114972869    5.49240060409802    4.55966480649656
H         5.30953709239879    4.88996678387699    3.94036886373468
H         5.48756725306872    4.48649325357946    1.85971943437292
H         7.12593426348309    2.40152534296068    0.13288177618926
H         5.79115401327443    2.69989492095329   -0.88894639551361
H         6.84705510228560    0.05946376435537    0.33429981618103
H         5.93207310624507    0.21345057212253   -1.18609661265736
H         4.11359534253205   -1.49913046947164    1.94879301417403
H         5.73318610798535   -1.77715046020363    1.39937506957153
H         3.88269301186831   -2.93681811712664   -0.02669947373176
H         5.31860710882730   -2.35041287892156   -0.73165121345669
