36
 energy: -47.841418068169 gnorm: 0.139276737673 xtb: 6.4.1 (79825abcba525fcdf90b791dcacef51065a7a4e7)
C         1.78448716946961   -0.03838262010292    0.42694557677012
C         3.19454464039785    0.12433570321225   -0.18641348213846
C         3.35545850877311    1.58382981776039   -0.56946359623432
C         4.09143805521715    1.88127577864747    0.80852412035680
N         3.33268365450936    2.55516149871386    1.85479496196111
C         4.18139665128732    3.68254665326772    2.34080544514554
C         4.08668837593485    3.58223503011508    3.89969656349747
N         4.68130266274175    2.39386116620411    4.53128751291608
C         5.54001682010642    3.46471245353135    1.71540572853593
C         5.36520827164084    2.56020120789245    0.76212036337234
C         6.35371823025231    1.82116194546359   -0.02569447331899
C         5.85273501617478    0.36579117099402    0.14095107774117
C         4.44292286890052    0.40297034973464    0.90662040013395
C         4.20255928863522   -0.89703065252334    1.67511217548270
C         4.04546051950390   -1.88203625236848    0.50542160918228
O         3.64184709237730   -1.14881888521321   -0.67725420154786
H         1.54877399089119   -1.02156048634260    0.84846865339828
H         1.15439130838165    0.22513817863946   -0.42382087575652
H         1.58798655853589    0.70828793731957    1.21035503455062
H         2.42741655430847    2.16450540250975   -0.60635023745000
H         3.92509448806911    1.77814689561613   -1.48950907639857
H         2.47028095905859    2.89471109478148    1.42096890682295
H         3.79985145394977    4.67699308109566    2.09506923846176
H         3.01234799981541    3.41772717746790    4.04066761283958
H         4.37430308892067    4.50258573393687    4.42651635253251
H         5.70089230923239    2.42947349294578    4.48721809052807
H         4.30694720137472    1.59757613854403    4.01043625582678
H         6.32789638154486    4.17825496696937    1.89330623622207
H         7.35585832740355    2.14196099303064    0.28273451447317
H         6.29315996435927    2.23130506860345   -1.03908215011891
H         6.48969303264403   -0.19837956208185    0.83776538787666
H         5.74331927842646   -0.30146490321863   -0.71984597319315
H         3.31544158786456   -0.89859088768936    2.31437124542090
H         4.94097598575522   -1.27938196918781    2.39328242963395
H         3.28347291660261   -2.64330762012290    0.71855235603538
H         4.88768138036020   -2.46517685851698    0.12721254648198
