36
 energy: -47.844500424823 gnorm: 0.148240492994 xtb: 6.4.1 (79825abcba525fcdf90b791dcacef51065a7a4e7)
C         1.87731893883199    0.01240502725504    0.68407868169187
C         3.14008561353085    0.22110396321495   -0.18356970921715
C         3.41852853436171    1.70599176043400   -0.32612317791462
C         4.22261203546808    1.68663516985362    1.04576062809487
N         3.47660347369148    2.27715435740454    2.14996677115701
C         4.06941134121456    3.63561793355727    2.32510321435204
C         3.97343975010571    3.95864788413985    3.85337501586406
N         4.53255132904820    2.86142502248808    4.65848491381591
C         5.46678814933973    3.49462266586981    1.76663773004566
C         5.48163955939024    2.39382708620702    1.02807145149059
C         6.44428367269871    1.74061086879992    0.13891000202597
C         5.81436202833614    0.33084948086572    0.02652426091200
C         4.45418543109262    0.19235532846008    0.86672725756205
C         4.36057670494245   -1.27484379057300    1.28734708102408
C         3.93308784053002   -1.91806956059506   -0.04179021737995
O         3.39776673885876   -0.94843313312343   -0.97585129536675
H         1.00769149819790    0.57176676448719    0.32249372359088
H         2.14812682536973    0.36743262726390    1.67951127803791
H         1.56357286962905   -1.03819407405414    0.59653029593134
H         2.48048648125158    2.26984903232720   -0.28197899414660
H         4.06376551242463    1.98149465293467   -1.17258366343514
H         2.45350166094345    2.27085036683918    2.12851130249347
H         3.57018105179161    4.48505974635174    1.85170650610229
H         2.89038176703039    3.99332194147063    4.01746654194470
H         4.42768697462232    4.95267268523529    3.96686898728878
H         5.53526923039489    2.98180798104852    4.80960788338512
H         4.24421458926554    2.02656828633153    4.14334023250588
H         6.24059541852742    4.20888143074183    1.99598995551485
H         7.49977953726851    1.69523637499170    0.43249965584862
H         6.39688882235610    2.17883749245369   -0.86336262800715
H         6.52446916218102   -0.43670162231448    0.36735776304749
H         5.56969714523887   -0.02907892570302   -0.97784851081520
H         3.70370559694828   -1.51689283913891    2.12732626072568
H         5.33587782909763   -1.72610611440511    1.51619263873207
H         3.12673518160414   -2.61415601165259    0.22437318733654
H         4.67687697136180   -2.53228852373316   -0.55359470550589
