36
 energy: -47.841176999748 gnorm: 0.135000883989 xtb: 6.4.1 (79825abcba525fcdf90b791dcacef51065a7a4e7)
C         1.82999051055867    0.05598163139151    0.62367168520961
C         3.18324667267023    0.16951563974693   -0.11575812540865
C         3.47977506698404    1.54464659171111   -0.68481831819001
C         4.03212834518598    1.85185438666461    0.77446897910395
N         3.20582909007079    2.49739849370801    1.78689936074368
C         3.96532752936038    3.66748308804528    2.31754182200788
C         4.09665673345279    3.61833530823685    3.87623061829276
N         4.73731096190336    2.35761656164665    4.28225540174916
C         5.28872811166045    3.56449832636463    1.59474836354452
C         5.28370789018482    2.57014635964729    0.71799832907509
C         6.34195282836954    1.79212516599377    0.07086316831545
C         5.97346804492640    0.30483684917293    0.29233879843507
C         4.49576442440128    0.40778512002393    0.90958734910966
C         4.36082841291367   -0.89448275615371    1.69968071669161
C         3.99768357166986   -1.83627081723673    0.54026140139821
O         3.50640744979600   -1.13276140872117   -0.62719560615789
H         1.21875387071153    0.88206177099603    0.24437958927358
H         1.89024345126566    0.19104960435266    1.70459434222213
H         1.37876321143202   -0.92012924867978    0.39245476736546
H         2.70338384045353    2.10440235320841   -1.21745027821028
H         4.26774829168356    1.41377886885827   -1.44026507464279
H         2.31794951279880    2.81873994731970    1.39237822748263
H         3.43426243524167    4.60529987480480    2.13490481803345
H         3.12664928927300    3.60668241607183    4.38622345568514
H         4.68417647804674    4.45570956527115    4.27739348040381
H         5.58236612077461    2.30789302644090    3.71113129302252
H         4.11664803629653    1.62167965029643    3.93776696252112
H         6.07704880774305    4.17484638593741    2.00410329936493
H         7.31542606956099    1.99516185121406    0.53287096926194
H         6.56405461999196    2.00903927330357   -0.97911700301549
H         6.67355708637466   -0.32960361594355    0.85529080626804
H         5.91727592226548   -0.12276434225451   -0.71372963954333
H         3.58170447046979   -0.83351176071793    2.46445573438165
H         5.29635936186110   -1.17331009532089    2.20392015953069
H         3.19425380635853   -2.49324169331201    0.89869381735300
H         4.89755721428510   -2.40499866493925    0.29693631060734
