36
 energy: -47.840356580934 gnorm: 0.143293325700 xtb: 6.4.1 (79825abcba525fcdf90b791dcacef51065a7a4e7)
C         1.75889793692515   -0.10610697150386    0.41423494203425
C         3.14761362220565    0.19100403254298   -0.19743678805810
C         3.30515666156551    1.68788089291839   -0.39052604271393
C         4.08012963346919    1.71614368572688    0.99785726461234
N         3.34773360799563    2.35301203005583    2.08528884698699
C         3.87957016834378    3.71591118897657    2.38053954633827
C         4.26361820912539    3.79619939568071    3.89554267028378
N         5.10489208988075    2.66704401225751    4.32212453300889
C         5.16911660156079    3.64109775292818    1.59574772502305
C         5.29155256414347    2.49960399027537    0.93283523416141
C         6.42907980360473    1.70022030868928    0.47348719187057
C         5.83994023663297    0.27684949354860    0.31925021091533
C         4.36927833848981    0.22167504882454    0.95902466721035
C         4.18819057473089   -1.23978375082286    1.37097367848736
C         4.00699157695855   -1.87540431535064   -0.01691877231289
O         3.67454388775194   -0.87135416036579   -1.00716892354758
H         1.05072792791994    0.38062440086594   -0.26508008212172
H         1.67168817568151    0.33202627869594    1.40957470508146
H         1.44172304176141   -1.15068500132660    0.54883276574253
H         2.38630069202944    2.28275011477157   -0.35001846536096
H         3.95905210864936    2.14520268861972   -1.14683642184821
H         2.33132155091123    2.25301740807277    2.14967046934326
H         3.18147536804894    4.52025131506299    2.13439465600761
H         3.29434905494468    3.78988533650822    4.40703103696887
H         4.62718257448345    4.81814842568941    4.07089333224530
H         6.07293398864222    2.83322646563979    4.04274724142209
H         4.76383254894236    1.89196593333434    3.74903619075736
H         5.93564689010715    4.38552955850410    1.73645405878044
H         7.15621230179747    1.71092255068574    1.29415094960112
H         6.84873946882105    2.05464276027139   -0.47367157705692
H         6.46914914000458   -0.47794190926752    0.81315342507105
H         5.72830296490281    0.08819202309371   -0.75318602634817
H         3.36216444401018   -1.26198330987929    2.08708847273802
H         5.04490049063989   -1.63216942813691    1.93604168435764
H         3.28854277905103   -2.69847154729334    0.09251409142714
H         4.96933944616427   -2.20477993802485   -0.41419612871689
