36
 energy: -47.841495286433 gnorm: 0.132777132188 xtb: 6.4.1 (79825abcba525fcdf90b791dcacef51065a7a4e7)
C         1.88896859096745    0.05756653894139    0.89877166321989
C         3.17596668577452    0.16007831414963    0.04784517492238
C         3.34284372903927    1.52921670440105   -0.58489160881337
C         4.10697407304401    1.88470985739393    0.76370752405661
N         3.28093211219031    2.51733880950460    1.78446616400751
C         4.00755127835381    3.66900009253544    2.39538197269800
C         4.22023521863139    3.45675736078429    3.93125051711865
N         4.13327322301555    2.02365482552733    4.25274772955584
C         5.30826490632183    3.59642521162459    1.62902547192899
C         5.35187501073860    2.61622884168870    0.73752959818066
C         6.31511805694083    1.94913943806240   -0.14061491997987
C         5.84043101739753    0.47955009031982   -0.03181061613813
C         4.56916559784727    0.44548739729792    0.94692635376245
C         4.58839120595604   -0.89775447321787    1.67746625500270
C         4.24569115295853   -1.81889118485506    0.49545275606810
O         3.56427632557612   -1.08547813406005   -0.55193098886523
H         1.78548810233101   -0.87539704890638    1.46335279328086
H         0.98864862297493    0.24840929757107    0.31287870440250
H         1.94644046147615    0.86352477274857    1.64508801463438
H         2.40467194393798    1.91883523496382   -0.99457167435657
H         4.03869217385442    1.50291345912967   -1.43567421572639
H         2.51522283122538    2.90082961512239    1.22423274724710
H         3.55796701130042    4.63484368113912    2.15062314997869
H         3.49464545650323    4.06899456836927    4.47881605859502
H         5.16971074353034    3.90241095183215    4.25865827481322
H         4.76614633331713    1.55412713961341    3.60329505442797
H         3.24921199086038    1.66015244382363    3.88970551983709
H         6.16231228179849    4.17137138816501    1.94775059900651
H         7.31065968183403    2.07840383037548    0.30042117645088
H         6.26329001680012    2.36853552986584   -1.15069415241564
H         6.64205642094162   -0.07639594638862    0.47600335765009
H         5.56362494601073    0.03999103479413   -0.99531477751031
H         3.84873415618469   -0.98069848349592    2.47850318080488
H         5.55585135643668   -1.20467109778875    2.09823139881312
H         3.57644102290406   -2.66209357043716    0.71154976943586
H         5.12070534427855   -2.22883925081635   -0.01319622666148
