36
 energy: -47.835942994043 gnorm: 0.136969265478 xtb: 6.4.1 (79825abcba525fcdf90b791dcacef51065a7a4e7)
C         1.72091077900542   -0.03758280668955    0.52684792904978
C         3.08968112854054    0.16160149292140   -0.16434090453429
C         3.36590210936327    1.63409095975246   -0.40563009014931
C         4.16020087013248    1.72278528816587    0.96922007373027
N         3.55532345190109    2.19350482130436    2.20900205270790
C         4.18775305868349    3.51614449027107    2.48859884347323
C         4.05303492632449    3.99416896288828    3.97268687505969
N         4.59377567320149    3.11772818839076    5.02347550918292
C         5.51200713208380    3.36533467429436    1.77583456593769
C         5.43976441889454    2.38692302904805    0.88423862953262
C         6.37304548819634    1.71934848296807   -0.02532935855740
C         5.83153987494332    0.27060887141111   -0.09449755329775
C         4.48293967372533    0.24743751652791    0.77495209636354
C         4.26822847739381   -1.18150900615333    1.27531977521376
C         4.05580993500694   -1.84837768124817   -0.09334987196262
O         3.32022665762266   -0.98610962462339   -0.99592652690041
H         0.91474031367994    0.29516386353391   -0.13591142081312
H         1.52884163970839    0.32735211432857    1.53689719287579
H         1.57713345321396   -1.12807581177700    0.53043603389198
H         2.51654203327867    2.32360253705200   -0.35115185007225
H         3.92440332773018    1.96048770993067   -1.29460113494772
H         2.53410400392715    2.20668043859964    2.27361361180644
H         3.64087209496108    4.28104255951774    1.93115926161777
H         2.98388288698156    4.21516751233808    4.06868941435533
H         4.68004012786361    4.88282839578928    4.12906984204765
H         5.59057480350218    3.10275674850381    4.80224994542352
H         4.25799226669701    2.15312110472038    5.07123085747923
H         6.27006561147549    4.12343935129851    1.88615404865288
H         7.36584340548773    1.66318944930615    0.43675690085821
H         6.60242759997769    2.26376193975025   -0.94719547460256
H         6.53179166717139   -0.31351817508707    0.52031732805881
H         5.68988046431982   -0.19672026472078   -1.07414551740391
H         3.42230168713623   -1.29832857543270    1.95824983445093
H         5.12446668455290   -1.61179705841296    1.81284054850329
H         3.44110292629512   -2.75351957808576   -0.00149479736114
H         5.02942145593315   -2.17319699793225   -0.46618234688164
