36
 energy: -47.844012082754 gnorm: 0.144383879539 xtb: 6.4.1 (79825abcba525fcdf90b791dcacef51065a7a4e7)
C         1.78871244311890    0.10847174619267    0.45849466721145
C         3.16967405574494    0.22618370973810   -0.22709818550426
C         3.32013278309616    1.72110374108068   -0.43998309841617
C         4.10337888504148    1.80400916080608    0.94155314962539
N         3.41398767374714    2.27495345051541    2.13631845620218
C         4.12330622336201    3.54594095153466    2.46643239078600
C         4.18546008170645    3.64476753862249    4.02705528778749
N         4.63715963137227    2.54583248846574    4.89481965935026
C         5.48673514296819    3.41654511582857    1.82710177259560
C         5.40314755679347    2.43344147049912    0.94167983988668
C         6.33626411347923    1.83957600238652   -0.01779946674914
C         5.83423249111675    0.37518090897278   -0.03704222217907
C         4.47997386133277    0.33341713448021    0.82286559209012
C         4.29352454706594   -1.09346766144977    1.34015980367814
C         3.98222515498419   -1.84833731681187    0.03771726463539
O         3.49689927397861   -0.94703297007663   -0.98763284157793
H         1.45191412301152    1.06445105937620    0.87388792899544
H         1.74808925812666   -0.68973658776733    1.20111218161674
H         1.00360709261339   -0.17794028289976   -0.25665393511002
H         2.40534756531120    2.32279816415573   -0.40934887580219
H         3.96600888563606    1.98220433882615   -1.29051146195007
H         2.43683667474051    2.48845185093464    1.91991200693160
H         3.58086655313078    4.44795014160077    2.17143178176292
H         3.17452485320953    3.78710313972478    4.42566971805442
H         4.77789559806764    4.54580924771621    4.23788870968764
H         5.65493295200704    2.46467618469417    4.87680511455507
H         4.25770690400014    1.69917977931910    4.46506076346573
H         6.36069375944987    3.99229233064395    2.08450655440813
H         7.35162578552323    1.81618761174262    0.39550297826527
H         6.39713362023782    2.35274050375367   -0.98309547898409
H         6.62045476258791   -0.31335073273581    0.30549688989993
H         5.59700384443976   -0.01350878135131   -1.03244009714631
H         3.38106143444615   -1.07865309237904    1.94250853769065
H         5.11536282068965   -1.49084649924693    1.95162703231825
H         3.24545508481634   -2.65485645754319    0.14853538683282
H         4.83848120608267   -2.32949541292599   -0.43950752425781
