36
 energy: -47.840369080962 gnorm: 0.143196484057 xtb: 6.4.1 (79825abcba525fcdf90b791dcacef51065a7a4e7)
C         1.76235114922454   -0.05735368753686    0.51587898049358
C         3.15644237567563    0.07754876807305   -0.13930006646799
C         3.45020223092354    1.50248787326231   -0.57057418233703
C         4.11714477168242    1.79026699531756    0.84412039533581
N         3.27127023944762    2.38662972723805    1.87045386145975
C         3.93139723247837    3.69257369605681    2.16415408708081
C         3.90093978484723    3.81538241976943    3.72401429431528
N         4.93746223898272    3.07993879378730    4.46526294254820
C         5.33018487423548    3.54794305711741    1.61016828370902
C         5.40219404866643    2.44860548593879    0.87279256029160
C         6.48624792653672    1.61782788985689    0.34494910250517
C         5.84357440438796    0.22651426876423    0.12568661603176
C         4.44821849032346    0.30567428685689    0.91430407548794
C         4.33785792328252   -1.03693250300230    1.63789522472840
C         3.99069222988516   -1.92233870459153    0.43016022104181
O         3.67216219776668   -1.12273722308342   -0.73534809716362
H         1.16760548050889   -0.70080134863359   -0.14148987154882
H         1.10494252101495    0.81033685802406    0.58795230055829
H         1.89352236492543   -0.52458629482263    1.50296944280621
H         2.48454256789897    1.98777200969594   -0.74892017051087
H         4.17736163408309    1.73826263191293   -1.36074971189522
H         2.28393723072794    2.48078440055597    1.61837103953550
H         3.44034750748800    4.58683823727998    1.77166491319599
H         2.92745816213648    3.37961285497106    3.97616764683571
H         3.94971988093290    4.86376828785773    4.04930536311364
H         5.80917213743130    3.58478076998732    4.29784183977255
H         5.00459475864807    2.14323706830750    4.06081147913346
H         6.17301971998554    4.17767254466159    1.84386849928428
H         7.22419816638020    1.51611494280617    1.14956645983781
H         6.92132936306239    2.03425045976621   -0.56945539343414
H         6.36993469243605   -0.65838296595083    0.51228200598251
H         5.50461966888652   -0.01357287431469   -0.88705314923743
H         3.50846358811457   -1.02870021434049    2.35040459572710
H         5.23585153931832   -1.22596292285130    2.24212626379263
H         3.11964501469984   -2.53227828468495    0.70371890728708
H         4.86079622880066   -2.46498373772874    0.05481182819487
