36
 energy: -47.844947123525 gnorm: 0.141665985668 xtb: 6.4.1 (79825abcba525fcdf90b791dcacef51065a7a4e7)
C         1.82761032549843   -0.00476876526818    0.48438045902201
C         3.19132565982882    0.11828800142221   -0.23401091896458
C         3.40008971939044    1.58451615723441   -0.56467129950647
C         4.07037235480923    1.77084156809201    0.86536162970121
N         3.28870511329006    2.39258627632276    1.92693722428804
C         3.94708863969346    3.66689398501925    2.33947599581353
C         4.05158422691908    3.73094361282707    3.89965288494182
N         4.98861310940659    2.75226830780291    4.47313108085700
C         5.29650351630555    3.58228228699947    1.66394238015933
C         5.31552444111305    2.50175453074152    0.89612104808705
C         6.42486861121606    1.75250067540940    0.30286108901781
C         5.88795636652809    0.31688611113146    0.08469812314728
C         4.47258645924532    0.30245027925128    0.84082095144762
C         4.24430494008379   -1.05040717785873    1.51611430420975
C         3.85871564513493   -1.93568316092627    0.31999582929770
O         3.55022863680313   -1.13083058709060   -0.84459924152144
H         1.69380096165244   -1.08639317510923    0.59422038830036
H         0.97750989269147    0.38307409824518   -0.07880222078746
H         1.82184717582389    0.47147806028957    1.47585185845695
H         2.55184952623121    2.20255112920190   -0.87824423380348
H         4.23106012951167    1.71813916471498   -1.27203331497625
H         2.28361597995149    2.57846358461856    1.87710888313553
H         3.53504865140433    4.58108341268092    1.90431227695293
H         3.09996007340910    3.57698775705825    4.42104715532525
H         4.40726423684579    4.73619793234572    4.16472309211238
H         5.93762972376064    2.93449826391638    4.14308092135350
H         4.81100831264394    1.85836052671223    4.00957600932642
H         6.03786040262135    4.32923981563656    1.89630015914874
H         7.27767801845471    1.74340269413436    0.99203348038537
H         6.85067832112261    2.15584325564059   -0.62171456192532
H         6.54784663282840   -0.30034718197079    0.71169271054009
H         5.89729274443058   -0.09637777252795   -0.92885988553698
H         3.35907300963737   -0.85824701252431    2.12854494836333
H         4.96840649691895   -1.46315504959859    2.23203077403235
H         2.95185059799471   -2.51313959524031    0.54298410157240
H         4.67453537916094   -2.62436324447155    0.09067303934497
