36
 energy: -47.841753415380 gnorm: 0.127109174660 xtb: 6.4.1 (79825abcba525fcdf90b791dcacef51065a7a4e7)
C         1.70896615555829    0.13534031057470    0.40742585300533
C         3.13700507145604    0.12615607572552   -0.18550682672270
C         3.50296671578734    1.55997764656395   -0.52161916065569
C         4.12419350028272    1.76452081160400    0.92794266852051
N         3.37995652713105    2.46436654701628    1.96757729775424
C         4.12821400498358    3.68037874436662    2.40225225652268
C         4.13521239528335    3.76769012462610    3.96478268856601
N         4.61794347489034    2.52663365181135    4.59044653909286
C         5.43350799283698    3.56763305985212    1.64864670639712
C         5.36053975964654    2.50740564516978    0.85615375950003
C         6.30909775300906    1.76546306063675    0.02324193341180
C         5.83561515140032    0.29666221705769    0.14692423933612
C         4.41708174422681    0.27060084814879    0.89678146993367
C         4.22040265098325   -1.08047135092215    1.58545999454252
C         4.06900109881612   -1.93382999966941    0.31583459580243
O         3.55438810486921   -1.11908386925983   -0.76610615395056
H         1.56053047780211   -0.76826506620503    1.00854588594270
H         0.91038171388202    0.07359779505638   -0.33332938049820
H         1.47497195463311    0.99617405225458    1.05090994275894
H         2.61299684880120    2.17103073368355   -0.70702246184963
H         4.22003763188486    1.84842830508876   -1.30349732981663
H         2.37429154572444    2.65361504490925    1.95980860629796
H         3.60732319792756    4.53668531692889    1.96602004937072
H         3.15693056879644    4.00381063992207    4.39878118049355
H         4.83910396347443    4.55713597854012    4.26247150933275
H         5.60434173733129    2.35473310026858    4.38984228344443
H         4.13987331835214    1.76006637371846    4.11157137549286
H         6.18188958829802    4.34085898146392    1.70858310466121
H         7.31689811325096    2.06736351230379    0.33230469174446
H         6.27448716020406    2.22006432785834   -0.97223737743847
H         6.63010142191534   -0.30340218837304    0.61411648362739
H         5.74690652294788   -0.11850249896542   -0.86200740728061
H         3.38524452552278   -1.28204209447230    2.26185673785877
H         5.12686438628597   -1.43696137659254    2.09385180587465
H         3.48920353315652   -2.85825771056598    0.43770381057073
H         5.04435802491039   -2.27040509750668   -0.04169457193527
