36
 energy: -47.845702479131 gnorm: 0.130177321255 xtb: 6.4.1 (79825abcba525fcdf90b791dcacef51065a7a4e7)
C         1.69696613000563   -0.00962663836949    0.27102469038388
C         3.11657805645838    0.27175226750120   -0.27347180378042
C         3.42788188810744    1.72544734834915   -0.57778107927419
C         4.08492781809024    1.96797149452052    0.84996635950855
N         3.34601888114384    2.53754619219983    1.96983737289103
C         4.18933432342474    3.57719251891304    2.62974026308427
C         4.23796322142723    3.28121026792668    4.16571011779141
N         4.82110650712329    1.98255326032112    4.53738151482033
C         5.49365490292507    3.45989680159378    1.87514440213490
C         5.36938504571733    2.62808741777448    0.85039964915434
C         6.28313739163415    1.91714801658342   -0.04604055524253
C         5.80887652669815    0.44658914099702    0.05087288287707
C         4.39224068490021    0.47733093874159    0.80413235014567
C         4.14239695407998   -0.81848378921931    1.57666004408653
C         3.94581525644076   -1.72680923967222    0.35216320154728
O         3.51751871172450   -0.99340974686940   -0.82168550624717
H         1.24890503733161    0.82996442235906    0.81343523103677
H         1.67662264524433   -0.83985700413832    0.97853526459822
H         1.11472906212034   -0.41125737447460   -0.57132470704473
H         2.60073677848196    2.38863079001624   -0.85314498242207
H         4.16833812893155    1.68553199801560   -1.38948253097760
H         2.51044726608465    3.02709943073854    1.63908810767690
H         3.91000144775727    4.62420581873638    2.48613302581629
H         3.17509296607803    3.21219201791103    4.42394689131503
H         4.75209630452057    4.13444183329760    4.62935849347364
H         5.77851576837151    1.93481678524905    4.18544098118278
H         4.27313992885105    1.26296360813686    4.06049446925252
H         6.37021483914869    4.04204451250911    2.10815186086852
H         7.30975657296421    1.91269514934681    0.33913275238400
H         6.25277250754442    2.30947783484480   -1.06780108015240
H         6.42612686586951   -0.15673365630063    0.73245773958249
H         5.84045432633060   -0.01547155736236   -0.94093191667186
H         3.26665420883965   -0.69869858987022    2.22036688651551
H         5.05131798797467   -1.05703780391872    2.14602348983930
H         3.23332167387489   -2.54351160454592    0.52804393553974
H         4.87084600569474   -2.26210972337779    0.12810401953236
