36
 energy: -47.834521849823 gnorm: 0.151834217864 xtb: 6.4.1 (79825abcba525fcdf90b791dcacef51065a7a4e7)
C         1.72739981831147   -0.05986748270040    0.41477022812486
C         3.16311845692087    0.05749256696948   -0.14726825914629
C         3.35651073123815    1.50063745088181   -0.57467438301843
C         4.04729862880246    1.77394545931782    0.83142126954260
N         3.37267676551224    2.34784506855068    1.98902113981602
C         3.90108785100075    3.68713722664096    2.38220744947291
C         4.08238272120822    3.69198678532853    3.93664697709834
N         5.15482401864942    2.82951769295474    4.45695692608675
C         5.27895308201159    3.58782142627472    1.76897904174449
C         5.25766161216981    2.55435749194393    0.93894856933263
C         6.36699104388634    1.88610296156050    0.25571560710244
C         5.78175366889856    0.47578809077162    0.00004359299121
C         4.45990947626759    0.30960040536368    0.89464498953193
C         4.40931415464853   -1.07174134331624    1.54862659188519
C         4.00580539987681   -1.95853897419307    0.35956699867189
O         3.51301778027465   -1.19031966710349   -0.76570320673205
H         1.48169528282239   -1.03773378415530    0.84289158802611
H         1.14934285819189   -0.08972069247781   -0.51001434036347
H         1.49659754474570    0.75146854334371    1.12069086950775
H         2.35147322767257    1.88371806884039   -0.78193145907626
H         3.93076864896455    1.58700965670424   -1.50821369991391
H         2.35513226184539    2.44816447149727    1.94687149346542
H         3.25652529879316    4.50568072815604    2.05143203538968
H         3.18644110141855    3.17790077467284    4.30290795155508
H         4.23674458789084    4.71891636614762    4.29566616740263
H         6.07370957043462    3.19999278798256    4.20962931945225
H         5.06631125593267    2.01380985733074    3.84680603854631
H         6.07323963006468    4.27334474493738    2.01537785287935
H         7.29065271757693    1.86670197695344    0.84630679863673
H         6.66190302321497    2.43366488984716   -0.64541819471176
H         6.55655172726552   -0.23393806058116    0.32489905329676
H         5.53127525963407    0.25101919060910   -1.04154823492033
H         3.57190549312892   -1.17201604246069    2.24456058222334
H         5.35482231889391   -1.30213408243076    2.05867928332443
H         3.17198551625048   -2.56613978101696    0.73526578121906
H         4.84295491273069   -2.55323409136036   -0.01184846531544
