36
 energy: -47.847433502028 gnorm: 0.144055773492 xtb: 6.4.1 (79825abcba525fcdf90b791dcacef51065a7a4e7)
C         1.84771356880503   -0.03773776077959    0.50587019953383
C         3.21351663570261    0.09416941724989   -0.20696296971260
C         3.39385267530734    1.55233045133837   -0.58642183538618
C         4.06203859251673    1.80115870276406    0.83505705542171
N         3.27511922113689    2.53619087954422    1.81740043343223
C         3.99051388451845    3.74978648600828    2.31026291996787
C         4.08622284749034    3.78466240511214    3.87192776010530
N         4.89494289950648    2.70740075017991    4.46369200718176
C         5.34859258952757    3.57013175720286    1.67169285891678
C         5.31267837195284    2.52287831424298    0.85964482917430
C         6.42918205685380    1.77439237003904    0.27898012412096
C         5.89604760384569    0.32662296461580    0.15017637117247
C         4.46990592143425    0.33500276168020    0.88587452483189
C         4.29410514629636   -1.01012081770881    1.59163192894405
C         3.99217791045202   -1.92748802230054    0.39565139798609
O         3.52768016377006   -1.19193604983094   -0.76298517858101
H         1.03697930753566    0.01551742768741   -0.22880997700632
H         1.72152966718339    0.71511671341889    1.28532855390900
H         1.74549918502383   -1.04923945069020    0.92572295734500
H         2.37564802251629    1.89346568988938   -0.80250670671385
H         4.08683966290898    1.71289667994240   -1.42470310249501
H         2.26886138549494    2.69781823044729    1.72488462082122
H         3.50925916335194    4.68495474742620    2.01236874005903
H         3.08490206345734    3.65357223645267    4.29773872074779
H         4.52820506463235    4.76152403641876    4.11213559403819
H         5.78993652265827    2.53815885208076    4.00204604519166
H         4.35812829629299    1.85090172554315    4.30962257031602
H         6.28677734706135    4.03515109256503    1.92686356087201
H         7.37757738094369    1.90900370578700    0.81260109701244
H         6.47592408749434    2.07051753649831   -0.77409362865382
H         6.48592179402733   -0.45401648538947    0.65237633643001
H         5.68466003216912    0.03447924976889   -0.88333288092932
H         3.42385823951582   -0.91668613225494    2.24704987358038
H         5.14948575176751   -1.37781820690406    2.17502108439665
H         3.13844212312302   -2.57945806949910    0.62292695438800
H         4.80816303929692   -2.56830294654741    0.05512894451646
