36
 energy: -47.838063411063 gnorm: 0.141916705479 xtb: 6.4.1 (79825abcba525fcdf90b791dcacef51065a7a4e7)
C         1.72629104132631   -0.06624444432793    0.30372107319140
C         3.12867586205029    0.25602287549961   -0.26232596496379
C         3.52077453231417    1.72003718136586   -0.33758867008708
C         4.26316276424476    1.64088676671642    1.06654275080406
N         3.57219390164365    2.14540115168993    2.24660213711776
C         4.02424491732427    3.54293531664842    2.51130078105863
C         4.02153173562903    3.92249939680152    4.02955548721651
N         4.99585710019273    3.13853105603618    4.80466157152684
C         5.37426853711959    3.51280649601260    1.83236500058989
C         5.45483161833873    2.45609900291208    1.03591632427331
C         6.45005029804750    1.71023397940820    0.26312375976897
C         5.84480421957171    0.29495823681671    0.09719975847766
C         4.41690015449941    0.14711284130437    0.81444017466275
C         4.13837259553625   -1.30594244303061    1.20097559625848
C         3.75049682433711   -1.92363885287768   -0.15220422088653
O         3.40418045095469   -0.88024868796513   -1.09593909649792
H         1.19950665000030   -0.61903060319845   -0.48164940556395
H         1.10121004630673    0.82185139571700    0.40777439259574
H         1.88335310395430   -0.63574474763982    1.23154686617413
H         2.70378657484113    2.44276136785820   -0.43762394086530
H         4.29491095763205    1.95787789905903   -1.08114266141179
H         2.54929510471762    2.15324156016857    2.27582499615576
H         3.38807543434108    4.27219033810943    2.00300734032488
H         3.02394411987693    3.63274230475764    4.37884432629830
H         4.17086378818500    5.00666504974743    4.12749172075610
H         5.94485476794999    3.38899819028847    4.52280515440008
H         4.83809245509611    2.16488465120565    4.53517894923674
H         5.96704454664434    4.39127161654571    2.02848067409255
H         7.47268603250236    1.72758214163126    0.65839638136121
H         6.47313851014973    2.25000754993290   -0.68921582995853
H         6.53081852432551   -0.39842883325444    0.60528740813598
H         5.74820029449825    0.00588948763451   -0.95412368026500
H         3.38776720204928   -1.39530325966373    1.99106331303925
H         4.97142877974060   -1.85706396245335    1.65869027612201
H         2.95141544352946   -2.65174485659323    0.03992727716113
H         4.50358258194331   -2.53329973498648   -0.65579779962914
