36
 energy: -47.838143605443 gnorm: 0.143511712768 xtb: 6.4.1 (79825abcba525fcdf90b791dcacef51065a7a4e7)
C         1.79732019983791   -0.04113833315551    0.64080908691057
C         3.14177809886846    0.09939218962011   -0.10994571960290
C         3.34119091987760    1.53730385535354   -0.55197319274299
C         4.10887284956186    1.80129737821929    0.81549236152273
N         3.34878948189906    2.49599189740966    1.84708613555454
C         4.09675301556279    3.66486457802604    2.39645347937252
C         4.17360962136057    3.72613844389834    3.95834727167892
N         4.69068096955349    2.54112365455024    4.66054589331738
C         5.39733393223806    3.60729390024549    1.62859916984041
C         5.34663769064412    2.54497186079979    0.83717423645645
C         6.29674978703493    1.91684064123042   -0.08300041769256
C         5.84630736369764    0.43566231338619   -0.07455027512533
C         4.52085584059494    0.33543931244465    0.82452464463307
C         4.39256454700362   -1.00561795901106    1.54803250505055
C         3.98358089063137   -1.94938878399427    0.40561354306797
O         3.49925772577746   -1.15692358433590   -0.70644021450564
H         1.80713238794375   -0.97805717799637    1.20823125666195
H         1.07421019730986   -0.11811156727644   -0.17248950960840
H         1.49073018653700    0.66636862844410    1.42521730445188
H         2.35174294850936    1.96688962180692   -0.74238175620916
H         4.07142926866861    1.59501274533338   -1.37182049352155
H         2.37300366107687    2.62840111431876    1.56861309301207
H         3.58094320072769    4.56518442606066    2.05257684943318
H         3.22050613561819    3.97383794443887    4.43936871922782
H         4.76998230746523    4.60117579891863    4.25152978632295
H         5.44873657324952    2.14264400828059    4.10436330232980
H         3.97727224931522    1.80892154733968    4.68118478332808
H         6.23236342096681    4.28312811245734    1.71531482478321
H         7.26809342692141    1.99095807764270    0.42031198820629
H         6.50533959026826    2.37424582014233   -1.05568232182956
H         6.62693078487377   -0.09618597827104    0.48876028224580
H         5.67288959614095   -0.17399359935427   -0.96697393331006
H         3.68891524436467   -0.89931913030396    2.37821960894869
H         5.34526494331471   -1.36990032930076    1.95654268402006
H         3.25126365961008   -2.71209240494990    0.70155032642452
H         4.82951550453344   -2.45076292599364   -0.06920183084518
