36
 energy: -47.847271190399 gnorm: 0.132315418333 xtb: 6.4.1 (79825abcba525fcdf90b791dcacef51065a7a4e7)
C         1.77145717789182    0.08390401253669    0.62031809654375
C         3.15775662817535    0.05039301361145   -0.06378680024004
C         3.42530297070492    1.46413766931685   -0.54595766524064
C         4.15992917783157    1.78076990572773    0.82847259148371
N         3.27274098211078    2.49202835510338    1.74035056687312
C         4.03941600858014    3.68944184265020    2.19414302179838
C         3.88178402263958    3.75662799444311    3.74971744797223
N         4.70348099022620    2.79205490048054    4.49745975907452
C         5.45028946612935    3.47294019762710    1.69716368477793
C         5.41639777918660    2.49235306091955    0.80567511809602
C         6.49507481946167    1.75597554246737    0.14371800279541
C         5.87864831382720    0.33945945948145    0.04193602530851
C         4.51864032460982    0.30235114304781    0.89293740661964
C         4.37785457401572   -0.99359834961823    1.69234417324122
C         4.08396502578627   -1.96298792178074    0.53605490367860
O         3.32472214637621   -1.30491593728992   -0.50784408418004
H         1.29290521032562   -0.87944298877836    0.41335990982816
H         1.18739646269442    0.79936116577919    0.03957572142072
H         1.69395015075771    0.39145201884275    1.67353539475752
H         2.58685149026377    2.11911380045731   -0.80636508234285
H         4.12773723909922    1.62801255681539   -1.37569201124901
H         2.39846639886945    2.78279865866398    1.29500353426435
H         3.58565469967857    4.61267133508684    1.82450169640368
H         2.81476328185161    3.62551547855948    3.96283518085789
H         4.18866390653986    4.75844009406333    4.08063131488166
H         5.59051295930541    2.73779543004275    3.99446513217671
H         4.29747056409623    1.88445530428971    4.25888818477941
H         6.34227257353292    4.05041869306328    1.87724825456895
H         7.44683831614256    1.77174127531898    0.68798167382659
H         6.77078885923060    2.19179134737344   -0.82214204864925
H         6.59698084045339   -0.38999555390440    0.44374205507643
H         5.74048366405584    0.02435451704597   -0.99719507565673
H         3.49946515551968   -0.91620918234891    2.33893164111208
H         5.24629366836203   -1.23876193773124    2.31918435890531
H         3.45591450328096   -2.81191229552433    0.83682702354872
H         5.00299118496088   -2.29104852603477    0.04595471045975
