36
 energy: -47.829216610907 gnorm: 0.136276883657 xtb: 6.4.1 (79825abcba525fcdf90b791dcacef51065a7a4e7)
C         2.17638659244425   -0.40383549432825    1.37575027697782
C         3.17559064786991   -0.03413458090902    0.25509821605762
C         3.14478943395419    1.40298969330745   -0.23118230336524
C         4.24865337749368    1.66629377174342    0.88288469554886
N         3.61609170711686    2.10151847772066    2.12181883431072
C         4.04353858631292    3.51881840560619    2.31173253586801
C         4.35009555123670    3.60895502923825    3.84374811687746
N         3.20702378499990    3.40676610119068    4.74774605207810
C         5.27712667166891    3.64194469959071    1.44713694401500
C         5.31490898167187    2.60479382080380    0.62230851208182
C         6.29006230036352    1.99635137622749   -0.28480600790191
C         5.78385011059731    0.56185346435439   -0.57259732920839
C         4.78503440731203    0.26090286502597    0.64682786945207
C         5.07179824883447   -1.10583278272685    1.26985011851236
C         4.36341207919176   -1.89672155781412    0.15819550965178
O         3.39653313367429   -1.15020767232374   -0.62096792834790
H         1.26417282773734    0.19962898390962    1.31593585553301
H         2.52553518700481   -0.26559399574274    2.40008034151922
H         1.81915916299650   -1.44006739123371    1.28370798152876
H         2.16274473843413    1.81272085172881    0.02865448593463
H         3.38534988550096    1.54656807633585   -1.29431155218698
H         2.62966852302115    2.22408964565669    1.87854337271549
H         3.30864755544906    4.28085460646610    2.03947774894699
H         4.80986652995453    4.58349593819925    4.04380701927771
H         5.04708252149492    2.79227832310926    4.07731830734781
H         2.45489201433064    3.09649071344242    4.13065580058192
H         2.85663002679450    4.25755769999660    5.19370093167885
H         5.90348127247080    4.51897276821843    1.44026032117577
H         7.29040838305120    1.82792733237442    0.13144659050930
H         6.44513515967702    2.45676966856789   -1.26603309784666
H         6.68423004712596   -0.06941079264918   -0.59197934446211
H         5.30580966806666    0.47456269086213   -1.55342943717107
H         4.70370991676345   -1.18684717344408    2.29629055475782
H         6.14718219493230   -1.33114232176721    1.27211976648998
H         3.74074182022701   -2.66526234401413    0.63486174697844
H         5.02265974829349   -2.43766711123728   -0.52386125412917
