36
 energy: -47.841258915047 gnorm: 0.140298130791 xtb: 6.4.1 (79825abcba525fcdf90b791dcacef51065a7a4e7)
C         1.73917503494111   -0.04783782190888    0.46432400615271
C         3.17181283691385    0.08306330788095   -0.10256441091657
C         3.39614843057829    1.47862887469877   -0.65466405077141
C         4.05072191402788    1.90363823669090    0.73093717082655
N         3.28195745771393    2.58506921835135    1.76494196383026
C         4.04266960346476    3.78735301860340    2.21588312668737
C         4.21344572241498    3.61993521588582    3.76248598380468
N         4.53902605976564    2.27436290522067    4.26062082445129
C         5.36362619147824    3.61868112891882    1.50100635192362
C         5.33289562290405    2.56716644700938    0.69426963560386
C         6.38722274947526    1.78108221466064    0.05049242777803
C         5.87407864084036    0.33255097221211    0.23837369054453
C         4.43759453456552    0.44650512164945    0.94458184232673
C         4.31009384595517   -0.79022608662204    1.83486064344165
C         4.06999152693516   -1.83617598801204    0.73421004018525
O         3.58006003601404   -1.23769955028692   -0.49095389364588
H         1.64278307923063   -1.07276226584463    0.83864952712306
H         0.95880580454913    0.14115774510932   -0.27430452297631
H         1.65507774546030    0.63271085409938    1.32434780453389
H         2.42050075298394    1.95629124635623   -0.79522327917007
H         4.15021055940207    1.50756678854750   -1.45421446215402
H         2.33013167271451    2.80727513170973    1.46180899203299
H         3.63797979144591    4.79872210668629    2.12507866658888
H         3.27397596480687    3.89082334350048    4.25762143498791
H         4.91958183325608    4.33259977510742    4.21057944589457
H         5.55993986763799    2.26116919600221    4.24233636936866
H         4.14313531907049    1.55920837516859    3.64635507646821
H         6.12769125758765    4.33400006484971    1.75804548330749
H         7.30482466880796    1.79505293019628    0.65060639991245
H         6.59504397287676    2.06120919804132   -0.98737966934714
H         6.69035908660607   -0.22677503064577    0.71836845820228
H         5.84363442315083   -0.10153726894847   -0.76602393024539
H         3.45694442678327   -0.68865569675659    2.51121256802003
H         5.10991040506503   -1.09528412451959    2.52366636493812
H         3.35678295995523   -2.66024663173830    0.86772045594974
H         5.01320433742661   -2.30354330703550    0.44378204636736
