36
 energy: -47.841646503837 gnorm: 0.149858422405 xtb: 6.4.1 (79825abcba525fcdf90b791dcacef51065a7a4e7)
C         1.79919679258491   -0.07342346727616    0.51736736684189
C         3.16331276121606    0.11798614188465   -0.18512717755339
C         3.39456188421612    1.59134425020223   -0.46527604593622
C         4.14057476290823    1.76123588334660    0.92885146277235
N         3.46242377304445    2.26800418795087    2.11536303477767
C         4.02127508326557    3.63779224522047    2.31255077310393
C         4.10413080999567    3.95914003413427    3.84194412476911
N         4.59868276125376    2.84655339664885    4.66794353385443
C         5.37251336189917    3.56086608959445    1.63974869261295
C         5.41735440365403    2.43599503954005    0.93967315339752
C         6.52305159908575    1.65763017536542    0.37792162808028
C         5.76039033540011    0.39677373610591   -0.09689172531763
C         4.47501422476060    0.27750625160620    0.85641066233424
C         4.37260944670623   -1.14566518660111    1.40636782993386
C         3.85714462637471   -1.93874283335403    0.19458573095040
O         3.54664497706085   -1.05856924014718   -0.91361910550106
H         1.46432909707297   -1.09198466578710    0.74159452432239
H         1.09412293379091    0.50413777909803   -0.08226703259630
H         1.92900028444556    0.44156395515929    1.48059049089197
H         2.49502906262548    2.21625427966963   -0.45366897804937
H         4.15235812592196    1.83334387509351   -1.22416268755879
H         2.43950458484573    2.27720533150811    2.08727406205889
H         3.50828693892470    4.41885179475124    1.74538607096579
H         3.11028315651399    4.21455452925133    4.22687680675892
H         4.71539095440333    4.86048903034402    3.98767582187364
H         5.56258878251019    2.74913517526586    4.34519244333756
H         4.08399117692306    2.01305405532957    4.37490888571449
H         6.06427656559383    4.38717607963282    1.65461664752927
H         7.16181745276095    1.38444654519060    1.22625768031581
H         7.11352397149350    2.17072512009237   -0.38818224259719
H         6.31619477360429   -0.55223725462970   -0.09317342293036
H         5.41160974774567    0.46783757642782   -1.13201297938896
H         3.73174413752670   -1.19449580637212    2.29098048731600
H         5.38432498820070   -1.47497250253724    1.68060957154992
H         3.07254768889975   -2.61939474770490    0.55054149995122
H         4.63742422179914   -2.56689543053523   -0.24017751932159
