36
 energy: -47.841863326625 gnorm: 0.140702136667 xtb: 6.4.1 (79825abcba525fcdf90b791dcacef51065a7a4e7)
C         1.87870255770000    0.12494558630485    0.68919703013220
C         3.18265947366804    0.10541284200804   -0.14162393472487
C         3.40580883761923    1.51447486782940   -0.65882048944671
C         4.04918919450593    1.83058128832609    0.76073176974968
N         3.22667268466660    2.56596909381438    1.71319400661340
C         3.97826730014050    3.65988847083652    2.39580898124594
C         4.07298455137435    3.48523502271095    3.94812932788494
N         4.84262635708839    2.32571098264400    4.42547744351604
C         5.30581174688929    3.52527162383877    1.68592912548675
C         5.27419384950353    2.59516571036706    0.74181315365910
C         6.27046637592628    1.89650304375572   -0.07261595613288
C         5.87429571705855    0.40402474437786    0.03881278262905
C         4.50041895251126    0.38023817241348    0.86772710346422
C         4.42672871389726   -0.89307806788801    1.71128647014333
C         3.96178746913578   -1.86099985516803    0.61126413915590
O         3.55984974279823   -1.19763033060024   -0.61250892613427
H         1.65643384624365   -0.92135804610383    0.92526152575872
H         1.08041781535106    0.52705613013016    0.06364436195235
H         2.04489261888535    0.66729304070831    1.63158754754373
H         2.48630915425225    2.04330667935883   -0.93206742105775
H         4.14929803708051    1.63996316368113   -1.45894826582377
H         2.36970921262550    2.80711955188515    1.20851840301119
H         3.37483212966448    4.55057183624686    2.20232543402435
H         3.12019101428490    3.25789264801087    4.43970114349335
H         4.55659043645009    4.41746883723901    4.27119619390451
H         5.80780830885365    2.43582887481247    4.11072158514131
H         4.37317771268520    1.54522786279308    3.96076036830144
H         6.12048060640677    4.19464270416271    1.90909442786262
H         7.26941930936476    2.08947851891974    0.33625903428048
H         6.24508970878549    2.18240264965171   -1.12924111659252
H         6.65632006842410   -0.12119475363832    0.60638367300413
H         5.60082313562175   -0.18454647554711   -0.84264663576775
H         3.72486844783156   -0.75492033671996    2.53829131982813
H         5.41466535390275   -1.23984283362416    2.04438652720865
H         3.14709452701878   -2.56761660956694    0.81754572150782
H         4.82845863359036   -2.38240596901998    0.19962377016095
