36
 energy: -47.845074758460 gnorm: 0.138092684393 xtb: 6.4.1 (79825abcba525fcdf90b791dcacef51065a7a4e7)
C         1.73785314874214   -0.00625902703384    0.60280184184526
C         3.09830767593013    0.11483901013659   -0.12207566905984
C         3.32937869809690    1.54767537299651   -0.56516693544086
C         4.10436022874516    1.82787873026260    0.79493596132081
N         3.36067798075046    2.42655191932302    1.89631693372390
C         4.02136679000820    3.66804455742909    2.39602043546198
C         4.13027800275502    3.68048955863324    3.95716011437231
N         4.67118642405410    2.48851478147637    4.62896361254047
C         5.36936628764282    3.59183595279787    1.71667152442358
C         5.35751477014989    2.53537409777991    0.91592216056017
C         6.44922153538344    1.83705936545021    0.23436797949803
C         5.79112430681454    0.48909454712883   -0.14872195932683
C         4.49380648902500    0.35586994330327    0.78638219321606
C         4.48597805463842   -1.01075253562135    1.47241324234198
C         4.04992141594201   -1.86659877931569    0.27221580326432
O         3.42101034665574   -1.11281299811158   -0.79338798947974
H         1.01749534585086    0.71058680628064    0.19402585236682
H         1.76078622785978    0.16885122582339    1.67940670840601
H         1.31101845067787   -0.99785155467266    0.39205035421852
H         2.37788517251761    2.05659714533270   -0.75348938685996
H         4.01196890972797    1.66290948932205   -1.41928616966679
H         2.33821515522446    2.40458386642145    1.93271184962920
H         3.41154103672080    4.54278489811448    2.15554460971044
H         3.19560677655275    3.85727830967431    4.50147469469301
H         4.75008163933466    4.57398010996352    4.11471905419462
H         5.62462993384263    2.22477445457395    4.37566553642971
H         4.10694770037585    1.73016209929105    4.23904854281477
H         6.22580063788580    4.23159593010257    1.85368651475541
H         7.25899321413404    1.67676482138582    0.95610251100563
H         6.89532714835231    2.25845478040740   -0.67241478150626
H         6.48023728342241   -0.34418317685752    0.05209103126296
H         5.53352036221219    0.33324604814954   -1.20111232871152
H         3.85402135759082   -1.06339434877805    2.36319491341786
H         5.44613762352065   -1.32470958114099    1.90455307518538
H         3.39915654072388   -2.71190859225186    0.53210100130601
H         5.00180592212155   -2.21595802441250   -0.13311744299352
