36
 energy: -47.847134645486 gnorm: 0.127181962438 xtb: 6.4.1 (79825abcba525fcdf90b791dcacef51065a7a4e7)
C         1.84104317545142   -0.00178481045233    0.55002330663974
C         3.24178201145874    0.05898738865970   -0.10203952169718
C         3.52948770134416    1.49245089098472   -0.50842773233696
C         4.18081209323585    1.71823587794683    0.92467646733538
N         3.44251780696735    2.28460951383814    2.04657445450538
C         3.93007896355992    3.68662263418071    2.20201092838243
C         4.07737682805234    4.05460596270090    3.71596772081295
N         4.55557894570028    2.97967979815288    4.59946202407812
C         5.27955897716057    3.61637486078787    1.52496278495213
C         5.40598145947087    2.47958613257164    0.85475369414513
C         6.40456786221692    1.74596787909081    0.07461748620585
C         5.92493806499137    0.27484312588296    0.12566771011146
C         4.54586424475202    0.24011079496851    0.94551584509648
C         4.29289456914079   -1.12024584590571    1.59650947243611
C         3.89362274868544   -2.01538020269830    0.41227619012811
O         3.58328738693548   -1.18462618528702   -0.73348698251121
H         1.25385021715344   -0.85419587541554    0.19158101634176
H         1.27558271209833    0.91430723985638    0.37311276993419
H         1.87469647842830    0.00144521078984    1.64943986274604
H         2.71828373635860    2.21989145988632   -0.62061007641604
H         4.27610478545902    1.67537351298362   -1.29444942664761
H         2.47276666548344    2.34867605953260    1.72608178919379
H         3.22791483921782    4.36994103249159    1.71731700211795
H         3.06121447735824    4.34799803486873    4.00315769240273
H         4.77593871702785    4.88644865941449    3.88136342362168
H         5.27805418928213    2.49675368215717    4.06319223552662
H         3.86652311002919    2.23398010070713    4.72042443398770
H         6.10647901045262    4.28864851151657    1.68557740381329
H         7.46589448523136    1.77984718535838    0.34804606127567
H         6.45494216904131    2.20151400423861   -0.91975637795348
H         6.69476230064662   -0.32923591487940    0.62767709493422
H         5.79623662161773   -0.17284322341539   -0.86488104926906
H         3.54970928482240   -1.09338785427192    2.39812447066706
H         5.22997883253320   -1.50459270302343    2.02238592288039
H         3.03152454319119   -2.66483490836883    0.61371885859265
H         4.67093706874836   -2.70282977894053    0.07223718090330
