36
 energy: -47.837338092657 gnorm: 0.139895651454 xtb: 6.4.1 (79825abcba525fcdf90b791dcacef51065a7a4e7)
C         1.84131784164390    0.12260935014049    0.71904374237949
C         3.14730546048422    0.10512524314308   -0.10862726896558
C         3.46464218422772    1.49697206075165   -0.62321794968225
C         4.17860107395418    1.79750447095604    0.76564242115076
N         3.24125026305100    2.43485263156990    1.68197951081886
C         3.87107216378068    3.68213173089002    2.20651402963446
C         3.92915112288714    3.69526091820053    3.77036442776264
N         4.81385644370359    2.63511651687212    4.27839598318500
C         5.26982892865457    3.60888600728426    1.63858805759587
C         5.42784276127299    2.50507797499287    0.92158658373708
C         6.44710710956938    1.72808885486003    0.21351079088390
C         5.89064073859778    0.28628467838431    0.12183242660530
C         4.48348681191204    0.31109660222746    0.89287346958546
C         4.31514858590473   -0.97888163322654    1.69659933445163
C         4.00336006369229   -1.93972713953381    0.53786903599508
O         3.53240764625597   -1.18564453648674   -0.60615754893501
H         1.48794876753922   -0.90552678356141    0.85301205834918
H         1.10497379115396    0.77860823080821    0.25242776317790
H         1.88248269114547    0.59787012161035    1.71015041896276
H         2.71555168589891    2.28229343749890   -0.77134083042545
H         4.08940928137594    1.56152129879273   -1.52556346773895
H         2.31184152059057    2.67796016493654    1.32936710317114
H         3.39622333280449    4.55021563084395    1.74193286859280
H         2.91786952410721    3.45813568024786    4.11997001700708
H         4.26532087298820    4.72124106044319    3.97447561492093
H         5.80423342409383    2.87839808652890    4.33074972253408
H         4.71514630626498    1.86594383898503    3.61196700035094
H         6.05406171559803    4.31799125531470    1.84762014892690
H         7.44329153263628    1.70518067423914    0.67113188586889
H         6.58771379195630    2.15573309663697   -0.78458211297672
H         6.50407886417927   -0.39849502488187    0.72542561776378
H         5.97814125902190   -0.21281220592978   -0.84843558013138
H         3.44606657862103   -0.92532926961939    2.35800769158672
H         5.07857861148234   -1.41647695903735    2.35455464691360
H         3.21866806031861   -2.67264198611821    0.76738636531027
H         4.91993270521090   -2.46305983671193    0.25778240975328
