36
 energy: -47.818846534751 gnorm: 0.134468353562 xtb: 6.4.1 (79825abcba525fcdf90b791dcacef51065a7a4e7)
C         1.95306484468288   -0.61109058387359    0.58521426910927
C         3.21457005502228   -0.13583234395220   -0.17220423173180
C         3.05469277953772    1.36155218517874   -0.35934711308337
C         3.98916818564382    1.66402525782653    0.89135494661585
N         3.61375653943404    2.00392583172931    2.25811984485596
C         4.04001552504113    3.41807765159835    2.47258432645410
C         4.67497765341672    3.48793359243013    3.90126089799991
N         3.73279052533500    4.16833814422835    4.80350185644948
C         5.12249508447980    3.61373935594413    1.43606145724391
C         5.04919842134854    2.59691152164743    0.58862997539050
C         5.94958753911312    2.09848646192647   -0.45293367287183
C         6.03112005412495    0.61452189559847   -0.01927424370527
C         4.61257621871622    0.29433622078515    0.65926567237874
C         4.71370795642947   -1.03506414972450    1.40814725516261
C         4.49242151433596   -1.96754464631970    0.20623027292319
O         3.68786062072923   -1.32909119781814   -0.81567603716730
H         1.20224357280655   -0.91521020107017   -0.15211861466174
H         1.45179593897728    0.18068896959827    1.14385741693804
H         2.11142653152304   -1.52292448987784    1.17963859108798
H         2.06885742997760    1.75083283749751   -0.08294921212359
H         3.38032712425413    1.99866132266306   -1.19408186333155
H         2.62019816727816    1.87158444768950    2.46443231841408
H         3.28792754686724    4.21122606828979    2.48546496474394
H         5.63221937354119    4.01453897907824    3.98796699921929
H         4.87928806174918    2.41531242166956    4.02393033103090
H         4.19456573641899    4.31872740775492    5.70178918111447
H         2.95737779277879    3.57509023084547    5.10729436959583
H         5.90984198342635    4.34022418299744    1.55374851051922
H         6.91526987077588    2.61761699578620   -0.46985356063854
H         5.35161276117481    2.28601553324289   -1.35076339815486
H         6.71095146518779    0.54427375884680    0.84238039531650
H         6.25012009075248   -0.11428463042147   -0.80607409210835
H         3.85706475733217   -1.10811132263398    2.08376466161437
H         5.64530979774125   -1.11200247677938    1.98557143516481
H         3.99298026751208   -2.89260322801684    0.52310399417475
H         5.47555469229218   -2.12515135053190   -0.24214490262946
