36
 energy: -47.847417747445 gnorm: 0.131417809890 xtb: 6.4.1 (79825abcba525fcdf90b791dcacef51065a7a4e7)
C         1.82276996360240   -0.09059010660820    0.58696589037953
C         3.16813819831660    0.18695854619316   -0.12289301063542
C         3.41595252535658    1.66219548030904   -0.37785910944250
C         4.17669870147170    1.74419421641871    1.01624682987513
N         3.45472593742128    2.37783733056694    2.11249694461099
C         3.95518820976776    3.78148692988960    2.19509495126451
C         4.17908996836439    3.96682281479185    3.73285049704034
N         4.54627512605109    2.74855220078415    4.47156387579256
C         5.30529190677564    3.65339939230107    1.52783282076986
C         5.42195749894050    2.47146759525936    0.93886955650210
C         6.42334410684553    1.66782107089213    0.23505136241154
C         5.88512171121296    0.21754075196621    0.17290219257354
C         4.47391068615122    0.25295703165483    0.93607387924142
C         4.25514945764433   -1.16241157006544    1.47201397688053
C         4.00906541770523   -1.87819093678721    0.13403246136405
O         3.47751360430044   -0.99220412238198   -0.88170056478303
H         1.65058682823091   -1.17234852188698    0.59269380312434
H         1.03803674663931    0.43865685940154    0.04441729392828
H         1.80606474799700    0.24302524456421    1.63495516013629
H         2.50317845615862    2.26771161018749   -0.37838876402621
H         4.07023900471195    1.95922637798232   -1.20997072648778
H         2.44589298315544    2.27107193355619    1.97798099051397
H         3.41555879755834    4.55591027389544    1.64377359639000
H         3.23753260804070    4.34370032322950    4.14827314464910
H         4.94483328922304    4.70615334177629    4.00549356790004
H         5.43269933898855    2.33672111636291    4.17589401655927
H         3.93853752071095    1.93706387282315    4.33874979538430
H         6.09155397852968    4.38911035984166    1.48236944345858
H         7.34112992375236    1.65724050826591    0.83495336621265
H         6.70089468545674    2.08531309100852   -0.73834746433843
H         6.55853254598983   -0.33626435575450    0.84325434815056
H         5.79506884822290   -0.27213776412294   -0.80192055967969
H         3.39320176591219   -1.19048958135607    2.14424171056769
H         5.09680146365336   -1.65160438437908    1.98145725900948
H         3.32252909861027   -2.71480378870527    0.31931795330982
H         4.88057328368633   -2.42761391176515   -0.22796125170337
