36
 energy: -47.833665971892 gnorm: 0.131912363528 xtb: 6.4.1 (79825abcba525fcdf90b791dcacef51065a7a4e7)
C         1.75720949471214    0.06294097404142    0.69402273877148
C         3.08869153424471    0.22278115089939   -0.07575343995578
C         3.32293430860763    1.63197093953017   -0.58766963589664
C         4.11533922038170    1.93235020109778    0.75801120395856
N         3.28596474208734    2.52480979842163    1.79995289802642
C         3.98955319589480    3.69753628943018    2.39760923667441
C         4.26597788078139    3.35116744917562    3.89853948840686
N         4.64072728885017    1.94727829062640    4.12954561439016
C         5.29348831402816    3.72093557767420    1.63365177931258
C         5.35614802829627    2.66762787147970    0.83111313942122
C         6.48917165187393    1.85106388311495    0.39126778635880
C         5.91372747250106    0.47191983687273   -0.01331188818959
C         4.51796890572092    0.46401095427865    0.77851989640663
C         4.51341228938045   -0.85720989142811    1.54839754104612
C         3.96144130089311   -1.79687731440425    0.46421801919589
O         3.37075765728147   -1.06739698227779   -0.63949610030252
H         0.98745475429233   -0.11281659908323   -0.06523218421555
H         1.36339334370798    0.84057186693685    1.35012227636222
H         1.65453913787310   -0.89116543861053    1.23160951686910
H         2.35309658548518    2.10103183718038   -0.78566788816469
H         3.97120200569063    1.64285826660740   -1.47556513822507
H         2.49728421360070    2.99428049961578    1.34738503842795
H         3.35685419897213    4.58852300594913    2.37075080859811
H         3.28786945403879    3.51182554084772    4.36612455972320
H         5.00218486437420    4.04265603831531    4.33114732398503
H         5.53073749422220    1.63091605227502    3.74151189366245
H         3.98913047879064    1.33787782569742    3.62999525681503
H         6.08385341492444    4.26398236710774    2.12555513314926
H         7.13815863520243    1.78305867817993    1.27246948306565
H         7.06324096266167    2.30853282395637   -0.42113967113881
H         6.60608316422189   -0.31083202697302    0.32946710300287
H         5.79864230323608    0.26433150340318   -1.08187940047568
H         3.89057026880753   -0.94429898949746    2.44288942014822
H         5.53903569844152   -1.07942408414924    1.87387830481920
H         3.21507374328964   -2.50274620834079    0.85186281842305
H         4.74184886137656   -2.29384925131305   -0.11579402459565
