36
 energy: -47.843036257944 gnorm: 0.139223341273 xtb: 6.4.1 (79825abcba525fcdf90b791dcacef51065a7a4e7)
C         1.81505263882210    0.01873376618283    0.72539411925620
C         3.15309490234493    0.12999039876163   -0.04155657946041
C         3.30575359215527    1.57220425660978   -0.48816392306466
C         4.14988944492304    1.91851397095729    0.81433149916964
N         3.31158192850745    2.52656352044527    1.84001614130807
C         4.07421326757447    3.71373089816554    2.32637433458576
C         4.25469258084056    3.48006656717692    3.86325488867058
N         4.21446127081560    2.09008302256070    4.34391373876257
C         5.41270548569377    3.65338539233273    1.62693001487740
C         5.41615464095829    2.61283277015108    0.80553486677398
C         6.34931635994993    1.90876521358296   -0.07621412724393
C         5.85820593786891    0.44058660891330   -0.06520900759426
C         4.54216833608597    0.44774222519606    0.85304791257454
C         4.51300817725050   -0.86289784976636    1.64027651218426
C         4.06473012519113   -1.79290253880831    0.50131643746755
O         3.52684936261940   -1.11152667872166   -0.65870285102114
H         1.82958760242679    0.26715772998023    1.79214401925585
H         1.45904015144348   -1.00743893650890    0.62296256818678
H         1.12765632454425    0.69796016319868    0.20003941436150
H         2.30402474655786    2.00287857415270   -0.59240177042639
H         3.87861817153938    1.65978034285799   -1.42244680587104
H         2.36394002347001    2.64823116072134    1.47339756663521
H         3.43776111989264    4.59288097935866    2.19633378858107
H         3.45820696459087    4.01205352213253    4.39593065903193
H         5.20141774671546    3.88400723703438    4.24776775145650
H         5.16217479094846    1.73238538108128    4.21482119812798
H         3.65161175510378    1.39302113137406    3.85116325430738
H         6.28676363220788    4.21060692690282    1.92201010835421
H         7.39516984375555    1.95644094807747    0.24973488644468
H         6.35575262677092    2.34326474661701   -1.08120567147018
H         6.61101529621448   -0.13807547685068    0.48975274250016
H         5.64257135866311    0.01759004847019   -1.05148971494487
H         3.85367121010520   -0.78017753374603    2.50864535624673
H         5.47213589264014   -1.23542590444197    2.02565562457717
H         3.41870462676722   -2.54666499613186    0.97044019140810
H         4.96639334293797   -2.32596654601746    0.19264636585157
