36
 energy: -47.845121704579 gnorm: 0.128984788775 xtb: 6.4.1 (79825abcba525fcdf90b791dcacef51065a7a4e7)
C         1.76672312873100    0.19530671105651    0.76007051222689
C         3.10647813949364    0.14021688101369   -0.00997512181100
C         3.37311114679193    1.53872188251941   -0.53517444057864
C         4.14112339261457    1.89692083241695    0.81050042892713
N         3.27054948011384    2.63175243157995    1.71969593829404
C         4.06929186580220    3.69750896120681    2.39326171745229
C         3.98775329449898    3.36133504324787    3.91953566585660
N         4.40211658978169    2.00209377139556    4.30094351176926
C         5.42995695946304    3.56216863869993    1.74929057737304
C         5.41819610664424    2.56840776408612    0.87193509082392
C         6.39473429845369    1.90694845777013    0.00427849782728
C         5.86258840675401    0.45310439557785    0.00013108271930
C         4.51351472832542    0.42162345687081    0.86858444406357
C         4.52189023377781   -0.91856526414295    1.60491378997187
C         4.19132997038436   -1.79106602111139    0.38320825848858
O         3.45049583631975   -1.09775792609761   -0.65106551906937
H         1.01980136018315    0.66870866457519    0.11363444927765
H         1.91167877081297    0.72686834065961    1.70171676192935
H         1.45923512719273   -0.83082528761511    1.00979844140990
H         2.47894660677192    2.14696816986672   -0.70928033120574
H         4.00724754870974    1.44897035926563   -1.42878713544442
H         2.58023816606537    3.12309075245188    1.14585421123598
H         3.63470259265122    4.70019201577552    2.36785342353042
H         2.93882501933765    3.50138910627556    4.20462732043593
H         4.64958888412400    4.02362343272359    4.49456129481170
H         5.40764825269010    1.89528113250383    4.44331814046701
H         4.11239370279034    1.29853103007228    3.61789299535785
H         6.21032585116668    4.25935199351209    2.00717716905857
H         7.45617982016046    1.87583486898520    0.27757431511362
H         6.33071188164394    2.40148737700167   -0.97048899347192
H         6.51792513344135   -0.23974084911420    0.54790252562360
H         5.59470266269876    0.01072009233125   -0.96460068673548
H         3.67225204582675   -1.02269051712547    2.28528522183917
H         5.44972905867312   -1.33950763891331    2.01618364222303
H         3.53350676670048   -2.61403185757393    0.69236805204915
H         5.09979149083511   -2.14009387319304   -0.11207777970961
