36
 energy: -47.840844593844 gnorm: 0.123228129711 xtb: 6.4.1 (79825abcba525fcdf90b791dcacef51065a7a4e7)
C         1.68217142798027    0.01937970179192    0.42310194711357
C         3.12966667344621    0.07631374777694   -0.11769804697397
C         3.49033204983147    1.45441480883705   -0.64067187106431
C         4.15329598972518    1.78757173923557    0.76591092909013
N         3.33971793608952    2.49403149636579    1.74750043750403
C         4.03616890901998    3.70926861248538    2.26293412492971
C         4.01839141207974    3.85014371327438    3.82146280460458
N         4.71034844496795    2.78256902755145    4.56050639565764
C         5.38533498714978    3.54729786911036    1.60116262579294
C         5.41927368028430    2.48076824861057    0.81451524440781
C         6.49149580678746    1.70085776440014    0.19317613241857
C         5.82843800321499    0.30380554114951    0.11929562976175
C         4.43664993328358    0.29925170967983    0.91811172800781
C         4.29674868529727   -1.00976367908452    1.69609819462705
C         4.00384719794567   -1.95875930240999    0.52276617607725
O         3.47449973117478   -1.22757277508767   -0.61054360981411
H         1.58390075139386   -1.02081479093559    0.75206912350521
H         0.95609386025536    0.14838704325980   -0.38091050562839
H         1.51814480798970    0.66148188277948    1.30097428078093
H         2.56356664995855    2.02483488974635   -0.76530491077353
H         4.09339296032847    1.49896897111962   -1.55885505176604
H         2.34839631756079    2.63326400741151    1.53505498774236
H         3.51972110909630    4.59234744730381    1.87778468531679
H         3.00989405627335    3.69069003685236    4.21977235500508
H         4.36212026774262    4.86081738710595    4.08164715865333
H         5.58308252837530    3.16696515250560    4.92567516598874
H         4.78048603760420    1.93869670933905    3.98739374488442
H         6.27957588541045    4.08648934899665    1.86790473948712
H         7.44931471601014    1.77297964778936    0.72204902402607
H         6.68852340243144    2.07251805463938   -0.81770860643841
H         6.51020219672817   -0.44106728651641    0.55508952875512
H         5.67702952931365    0.19822059970141   -0.95963962223006
H         3.44209313900899   -0.84047319357481    2.35680763849234
H         5.20508935735185   -1.34807289439122    2.21348033140684
H         3.38508880652712   -2.79863726070494    0.86529641435125
H         4.90788624388961   -2.41662956927588    0.11595019834028
