36
 energy: -47.840617861508 gnorm: 0.141097856192 xtb: 6.4.1 (79825abcba525fcdf90b791dcacef51065a7a4e7)
C         1.73310974355918    0.01644868893658    0.46713390429357
C         3.17250090104914    0.10929927802152   -0.09007389300114
C         3.41743660828661    1.50182429687737   -0.64109504113857
C         4.04596873566272    1.90771207403919    0.76218420997084
N         3.27796256438536    2.66016262075061    1.74630698393992
C         3.98836154292300    3.81336180973592    2.37318990151096
C         4.33687039669300    3.57739727859009    3.88051731810168
N         4.58803105381625    2.15832803605521    4.17694021347830
C         5.26185833060376    3.64458307145701    1.57685767758314
C         5.32969303374446    2.56775987168347    0.80659674852456
C         6.38243469701316    1.81005019766861    0.12718945988263
C         5.90002429876075    0.34881862065923    0.29731147617482
C         4.44202817914200    0.45080122282970    0.95991917749844
C         4.31338869657658   -0.87247807040049    1.71539299217837
C         4.14566314734029   -1.87933668374243    0.56596010789727
O         3.56757297822171   -1.18608765096888   -0.56737616924748
H         1.06538591321487   -0.28009079520350   -0.34900967563736
H         1.42763511176558    0.97331751864170    0.89299169493312
H         1.53625255108983   -0.71907270297071    1.26093193864379
H         2.63509372433098    2.15229015206702   -1.04685411846699
H         4.19948628703458    1.67604798197812   -1.39393789987041
H         2.27683127043167    2.69721264443120    1.53749884121124
H         3.37823554221138    4.71907174180349    2.32499729704411
H         3.52685695757631    3.95618806842485    4.51418812285289
H         5.24205746013520    4.14094320806551    4.14577021650586
H         5.38407261183157    1.82883197793417    3.62873989850703
H         3.74877171730577    1.65054083992714    3.88833352761810
H         6.10921971121375    4.26599058213846    1.81639290342960
H         7.37178440435760    2.07700183947457    0.51738073207323
H         6.23610538814792    2.01112396126164   -0.93911084825610
H         6.54061618082454   -0.29539764046140    0.91713546099504
H         5.87346276263781   -0.14451860509924   -0.67946224449480
H         3.46712494663136   -0.81939094627226    2.40579275474985
H         5.18795975063404   -1.17781404998441    2.30625310346233
H         3.52660399906050   -2.74438392909911    0.83806845771768
H         5.10949791401504   -2.25775587332338    0.21918568632735
