36
 energy: -47.837398454763 gnorm: 0.126119591705 xtb: 6.4.1 (79825abcba525fcdf90b791dcacef51065a7a4e7)
C         1.79068334329645    0.07966880069085    0.51582412875301
C         3.11781237889926    0.29053952204390   -0.24916650382355
C         3.53719271374250    1.73752315772186   -0.43110654517707
C         4.19861120276257    1.67257511397416    1.01364169259739
N         3.52210479113376    2.13884502215650    2.21757038461274
C         4.06557901630571    3.49725983978568    2.51229432417666
C         3.98072478124446    3.72369667549371    4.05848310821695
N         4.84244312049596    2.89357470420957    4.91466343597054
C         5.42266873319091    3.40110264950302    1.85389729916576
C         5.45768550461639    2.37989159210886    1.00929476407453
C         6.40382923276480    1.82002356847439    0.04216340954090
C         5.94529644888294    0.34215444642983   -0.00793197912953
C         4.50830488710878    0.21613167134531    0.69518648801767
C         4.26293081187454   -1.21104451680072    1.18642623246050
C         3.69546813178916   -1.86512339378046   -0.08371509241984
O         3.40483144600869   -0.84882859701956   -1.07462819041794
H         1.94022519014022   -0.08164861579077    1.58890149633411
H         1.25931894997685   -0.82195760128473    0.20762084332696
H         1.15392923224917    0.96671136815945    0.38331200419533
H         2.77292434846514    2.47420993511876   -0.70127883249869
H         4.42658141092226    1.82561148350872   -1.07138470489790
H         2.50068725918828    2.15361634997016    2.15653407741938
H         3.47158369978678    4.30897868730325    2.08431206976192
H         2.95329936408673    3.65520342590340    4.43378114519082
H         4.16581387339680    4.79862071369810    4.19109940210834
H         5.82885103434712    3.00949890456875    4.67731472776528
H         4.61714628440976    1.94987081965609    4.59192173625927
H         6.11478884671123    4.22677777185416    1.88175539024263
H         7.43699634028297    1.87826576805901    0.40479106958282
H         6.36375533240913    2.40926209715076   -0.87980801984898
H         6.49730907104137   -0.37030315560456    0.62233823170455
H         5.95951532270281    0.02651803612238   -1.05595178176170
H         3.38145408122918   -1.21518994600756    1.83343008228459
H         5.04343116700406   -1.80102496105984    1.68638875319552
H         2.79553979251604   -2.42505640732399    0.20296924984958
H         4.31294495563263   -2.61795003771702   -0.57808888438594
