36
 energy: -47.835444986651 gnorm: 0.136666894004 xtb: 6.4.1 (79825abcba525fcdf90b791dcacef51065a7a4e7)
C         1.90795352892194   -0.52023509380751    0.51850366560081
C         3.22576449841983   -0.02835861713051   -0.12366487588690
C         3.26473266756511    1.48812475493679   -0.16243837902837
C         4.19423529826650    1.51856983496608    1.12755700063551
N         3.54385170255738    1.94827447034354    2.35916894731131
C         3.98062449555361    3.33686485953504    2.68865868840570
C         4.33337440803292    3.44301540452742    4.20966926216445
N         3.82762456061072    4.68588304208051    4.81316147113796
C         5.12351797595842    3.55521974083970    1.72401318379830
C         5.29314283327856    2.44866414999765    1.01393309243859
C         6.19997992241722    1.92578764299304   -0.00989786748929
C         5.83108973947997    0.44458602800979   -0.26839508659041
C         4.64834691995565    0.11145040761105    0.76375904815767
C         4.80957258374614   -1.37597895894291    1.07985558635195
C         4.37478073420860   -1.97906618085341   -0.26563091166662
O         3.65139594142541   -1.01790620366957   -1.07317008424567
H         2.04880838602460   -1.34766709595830    1.22234833048913
H         1.34124733636642   -1.04929327701281   -0.24909589998608
H         1.34916210210233    0.27371299830463    1.03547403011119
H         2.23354393037981    1.85729910886491   -0.14952657651380
H         3.73102672336852    1.87965142598055   -1.07786433115755
H         2.52084491493675    1.92657845737597    2.37412844500250
H         3.15251484085960    3.99867163944071    2.42195116568678
H         5.40029445809490    3.38227156749208    4.45284556302390
H         3.85420539624126    2.60324883830275    4.73168066289311
H         2.87305460630351    4.99763493172411    4.62774204915799
H         4.60089002994413    5.35436263227801    4.83949474202382
H         5.76079002847097    4.40951693572944    1.56399336707768
H         7.24713357641474    2.02891939998386    0.29857953025744
H         6.08125079413573    2.52728595109425   -0.91705962017305
H         6.63758541443062   -0.29303279421132   -0.14576753754743
H         5.47961588836220    0.32437930816903   -1.29805061307179
H         4.02677906440096   -1.62322522223097    1.80216852838454
H         5.82908820313857   -1.60872624487461    1.41695624143831
H         3.66027523436918   -2.80282590927457   -0.13723420199639
H         5.25604497000663   -2.26935868249315   -0.84142136416673
