36
 energy: -47.846906290102 gnorm: 0.140674443314 xtb: 6.4.1 (79825abcba525fcdf90b791dcacef51065a7a4e7)
C         1.72882901043597   -0.06613234111405    0.40577970345335
C         3.17619558048710    0.02869076588077   -0.13002553322471
C         3.43865800287493    1.49330226600152   -0.42796908560595
C         4.10012875510621    1.69160069280945    1.00455467220568
N         3.33542599367975    2.40592823832076    2.01918699363866
C         3.95198140139013    3.75258135376059    2.20331208935964
C         3.98917695932068    4.01747886619645    3.74526520049793
N         4.93183066174096    3.18398074298147    4.50775493353278
C         5.30851958866775    3.57494097704617    1.56091551825429
C         5.33762355680786    2.42815278853719    0.89647482481235
C         6.48042111647224    1.67802732978076    0.37177611320672
C         5.89660209704742    0.25348116056398    0.20842808584866
C         4.46589962437628    0.21517895815728    0.93425552694867
C         4.31392242004157   -1.19379021927282    1.50876894839131
C         4.05813006834506   -2.02057436302937    0.23830039890358
O         3.46301934038828   -1.20716028255036   -0.80258112023257
H         1.55598737273535   -1.10713784454232    0.69957288259157
H         0.96303722268924    0.22239773873139   -0.31573321840157
H         1.56880208504735    0.58964199743846    1.27423303579598
H         2.53593944892011    2.07317907259013   -0.64853366486961
H         4.20767701701486    1.67993662449852   -1.19118945098075
H         2.34909669071119    2.54115690502519    1.78232182702889
H         3.30843017419233    4.51255259279035    1.75256575918177
H         2.97275632636827    4.02690576035585    4.15507387388702
H         4.32786486059306    5.05939495054526    3.82897963400306
H         5.80227454187831    3.07202067737544    3.98567659258812
H         4.46966677162158    2.29821227649434    4.72527884359773
H         6.03226863224424    4.35194266601403    1.74531025441420
H         7.42287448035516    1.81898709633756    0.91421251636698
H         6.77808554385399    2.01973182510787   -0.62495514442055
H         6.56950713203976   -0.49035665793962    0.65949175426317
H         5.83103893014236   -0.03587631889209   -0.84520740825024
H         3.50771504867742   -1.29054243586549    2.24109476042330
H         5.23430243470405   -1.52809043373484    2.00713051719658
H         3.23119377357911   -2.67553301857621    0.54291398879103
H         4.85799123381554   -2.61237812825082   -0.21161232789601
