36
 energy: -47.836348200028 gnorm: 0.143577198991 xtb: 6.4.1 (79825abcba525fcdf90b791dcacef51065a7a4e7)
C         1.80898987790571    0.01878921775131    0.44537877054872
C         3.21919479593939    0.02335607564574   -0.18885295826050
C         3.58046695417480    1.45458783653178   -0.54070775779320
C         4.07195372774400    1.72924259216631    0.94657017539571
N         3.26570979933553    2.41249364370114    1.95038869350911
C         3.88861287414467    3.72793174445534    2.28073940999319
C         4.01627010416480    3.85011700009069    3.83571464977755
N         5.08997953487969    3.04532370973657    4.43917263217482
C         5.24449395798853    3.55709732900217    1.63511769184585
C         5.30950651095489    2.47046730890411    0.87850670983672
C         6.40312653736692    1.72844557521523    0.24812414562761
C         5.84279168728940    0.28522915736448    0.25132346326134
C         4.41197175778004    0.24532098944318    0.97683277261647
C         4.10462950527136   -1.11224653562427    1.61000575492883
C         4.05233345619439   -2.01212304573477    0.36478309869918
O         3.61736657682221   -1.22677191332231   -0.77243323513136
H         1.45609566826546   -0.95770760660106    0.79437841254698
H         1.11338586946857    0.25400824953911   -0.36151318813893
H         1.74046978530740    0.57596682067154    1.39127406314751
H         2.70189234512720    2.04396726715745   -0.82451256838265
H         4.27333918249010    1.60853562741043   -1.38032440424447
H         2.29792373326822    2.55110692376346    1.64804141216020
H         3.24919929991157    4.48570591593471    1.82050543828782
H         3.02890249877048    3.53021401679223    4.18772346939641
H         4.14183159284499    4.92333286250821    4.03508554655807
H         5.94938941534565    3.58699272416712    4.33533268535809
H         5.29936850229505    2.18487693727715    3.92801169685406
H         6.01410979223331    4.30984621879998    1.58406589599765
H         7.35841073119576    1.77429799622167    0.78445884461307
H         6.62884460988418    2.12886735592356   -0.74563287878726
H         6.45338340992052   -0.39840622434419    0.85908552746600
H         5.65245984683327   -0.09657660442382   -0.75673019568301
H         3.11579897647752   -1.10130318893511    2.07661783436194
H         4.82306556637700   -1.52623556683554    2.33089615492628
H         3.19184037881084   -2.68994209376264    0.44026102624589
H         4.98579230487294   -2.46055168563228    0.01837673123953
