36
 energy: -47.845343129299 gnorm: 0.129467774723 xtb: 6.4.1 (79825abcba525fcdf90b791dcacef51065a7a4e7)
C         1.71971459482444   -0.02737818584779    0.24459633783137
C         3.20245789661498    0.13445100009575   -0.16311951853108
C         3.38006216341135    1.61621477103978   -0.43803135310702
C         4.08363275891491    1.77753975850051    0.97899108049611
N         3.35266912845255    2.41397567710343    2.06763890309274
C         4.01210806887141    3.71823352389164    2.37024238152526
C         4.17824614773396    3.80636462530914    3.92388473235524
N         4.86659843776413    2.64818094184139    4.51505929684654
C         5.34856886389375    3.52241977157251    1.69204279450647
C         5.35138314451042    2.46394191156801    0.89387735210384
C         6.33008439659898    1.75663283732423    0.06572237214565
C         5.80396750489932    0.30060345795367    0.07191491177879
C         4.45746459744494    0.30185698111505    0.94491562839459
C         4.21715441338169   -1.04326811499062    1.63138927133226
C         4.09804701241344   -1.90347881580670    0.36294811111106
O         3.61178661229361   -1.11125574727161   -0.74843255351420
H         1.56640499076801   -0.80574274673718    0.99992797690240
H         1.12332750981333   -0.27327845417821   -0.63524629330765
H         1.42767389637584    0.94971286442603    0.65674326388298
H         2.49856414969999    2.26551010211431   -0.47243185595468
H         4.06435760531624    1.85018415858616   -1.26611707951766
H         2.34796220181632    2.58727575949239    1.97950043734407
H         3.44923602442470    4.57015542914615    1.97999786667688
H         3.21241367042727    4.05802631235923    4.37662849630615
H         4.84246055266329    4.66717224618903    4.08242865007767
H         5.75443008747082    2.64159374674797    4.01059426810234
H         4.34040266824943    1.88175819590950    4.08936918411225
H         6.22902676081012    4.11962579164477    1.86433457335698
H         7.31876893028561    1.74303041627625    0.53968759632932
H         6.40688268936480    2.05063658273848   -0.98618209712624
H         6.59871228053351   -0.33283459483620    0.49226147410616
H         5.56074057554910   -0.07475400065062   -0.92714535383002
H         3.23502698867078   -1.07387416394774    2.11109889410169
H         4.93765573781998   -1.43670599805117    2.36166637022251
H         3.36461153446534   -2.69320931049703    0.57266707147559
H         5.01060561531605   -2.41884212073777    0.05624226546260
