36
 energy: -47.844267396234 gnorm: 0.142270758627 xtb: 6.4.1 (79825abcba525fcdf90b791dcacef51065a7a4e7)
C         1.79068584530752    0.11280765960575    0.50644605045409
C         3.19300126783980    0.07911009501496   -0.14418793469094
C         3.43787951586260    1.50994139408659   -0.58634193626775
C         4.05607960248223    1.87036045814061    0.83384005448299
N         3.21173193429307    2.61075791802937    1.76303405471058
C         3.96900543201688    3.73418059093307    2.38911358336983
C         4.27391480492927    3.33632795166960    3.87165098409689
N         4.87343792437939    2.00424593229077    4.04725063444935
C         5.22631015102847    3.77834641876727    1.55146238813126
C         5.25547061218522    2.67459060899515    0.81775645710122
C         6.38227944411661    1.90187850173399    0.29125760480751
C         5.88112346660508    0.43877126454890    0.36210181672712
C         4.40185846983779    0.39494538738299    0.98263097787774
C         4.16177248154188   -0.93039990676066    1.70663057876633
C         4.04938824591536   -1.86032235226159    0.48773513706387
O         3.64352909661130   -1.15965704116554   -0.71375562436978
H         1.55303590956071   -0.81139120825999    1.04427509538207
H         1.07000821950456    0.28447778653175   -0.29444138845843
H         1.76131511070966    0.91712244282366    1.25616258195528
H         2.47518773016740    1.98932558669544   -0.79424082854489
H         4.08976256490548    1.70490398341996   -1.44991940134427
H         2.44583949027207    3.03098667562820    1.23006694928701
H         3.45461819868645    4.69776963361730    2.34682116509641
H         3.40125068242907    3.52868045222428    4.50615926752919
H         5.11151043251570    3.95028596335952    4.23053237315631
H         5.63637324848836    1.97936647319615    3.36895563863507
H         4.25338990446776    1.29309073180245    3.65317370991376
H         5.93196460183828    4.58691381458221    1.65053951702374
H         7.29975243532108    2.07069934001030    0.86751108672586
H         6.68293349865619    2.05085508390362   -0.75097672150886
H         6.47865640505825   -0.19763945968442    1.03104881832275
H         5.77325263039409   -0.00492773701798   -0.63271932530275
H         3.28161927048337   -0.82975834099634    2.34759391438911
H         5.00081824428444   -1.10737423979533    2.39358220750703
H         3.25454509805457   -2.58218371948582    0.71735319193375
H         4.98867840976112   -2.36724910652807    0.25710493495463
