36
 energy: -47.837761361292 gnorm: 0.145719775863 xtb: 6.4.1 (79825abcba525fcdf90b791dcacef51065a7a4e7)
C         1.87330237049429   -0.12734062094559    0.66197332454396
C         3.22847030662725    0.07696803092816   -0.05407589957568
C         3.34208147976259    1.54925077883793   -0.40367529454056
C         4.18054927021239    1.84846538172641    0.91406236248405
N         3.44231071042015    2.49220584800199    1.99346726183460
C         4.13659829071279    3.76095065828717    2.36193517392441
C         4.28346900859264    3.65098377547884    3.91612624833234
N         4.10220978877687    2.33556688212790    4.54978958089969
C         5.36802825190762    3.68406357220661    1.48895523926755
C         5.40281036681338    2.59592868901579    0.73251335883248
C         6.30168880642942    1.91872280675455   -0.20417920522932
C         5.86515392210525    0.44451238049228   -0.02252039089874
C         4.56777448563721    0.37585575810486    0.91944296130653
C         4.52913402662046   -0.99835627616051    1.58907350859761
C         4.07774458272066   -1.94657716920610    0.46647973256558
O         3.63641317281635   -1.15675361469379   -0.66517344652721
H         1.69051364575628   -1.16581186721020    0.95870025904757
H         1.15642547971281    0.14275178509727   -0.11481826733970
H         1.75163280300144    0.50852022802422    1.55120742488182
H         2.36185860624394    2.00495578944252   -0.58060097459947
H         3.91780705667389    1.89654410749661   -1.27353468552014
H         2.48911649441852    2.69948313500960    1.68412230649182
H         3.46947849854728    4.57354807018825    2.06273062906482
H         3.57600648969054    4.39189300276987    4.30560438923609
H         5.31699121762916    3.93232053278094    4.16105114632283
H         4.47135430416406    1.64545901866453    3.89384990115630
H         3.11543362894616    2.17122231185197    4.76135886875447
H         6.19085349515750    4.37931357633289    1.52259711306237
H         7.34510812620871    2.24155539970263   -0.10732625065626
H         5.94497588012885    2.24757870594115   -1.18573356154960
H         6.61045877826168   -0.17575991849254    0.49645673945452
H         5.62690753857209   -0.00224880320705   -0.99299302660549
H         3.69597689485777   -0.94884116629312    2.29549395603088
H         5.48967750339179   -1.38420335863996    1.95744630460278
H         3.41530047724221   -2.72321674613406    0.87093330560002
H         4.99327567509297   -2.38588376130438    0.06492827545098
