36
 energy: -47.838282265858 gnorm: 0.148695094441 xtb: 6.4.1 (79825abcba525fcdf90b791dcacef51065a7a4e7)
C         1.70166850618587    0.02518970495557    0.44509340531026
C         3.12943975867858    0.15667484320563   -0.13381035485591
C         3.40423876245853    1.56445718967299   -0.62916689769471
C         4.09655864664040    1.94047567959135    0.75224304413263
N         3.28450347641537    2.58600051040391    1.77614585392225
C         4.03625003652746    3.74235585953418    2.34644108604790
C         4.11004085242896    3.50887364047891    3.89214952175651
N         4.79088711804706    2.25470671188075    4.25022688056955
C         5.41367881670884    3.56078596533002    1.75133803295193
C         5.39014530725326    2.57185206957540    0.86878064385463
C         6.41258920628284    1.75048442076049    0.21766862883655
C         5.76798668335562    0.35468042280161    0.03579561455655
C         4.42072320545051    0.46017987726628    0.90121635299652
C         4.30561397896361   -0.81163264878521    1.74240574324447
C         4.16547245516649   -1.77586648149929    0.55341224998152
O         3.45616860431875   -1.17562123647978   -0.55826543150736
H         1.42574833324708   -0.67770383051135    1.23862340447606
H         1.16931334073800   -0.21323902580691   -0.47687041190328
H         1.32717238833275    1.03908105638520    0.64914431505190
H         2.55724194856795    2.19774296831312   -0.91438988244942
H         4.11386346780357    1.50738859294658   -1.46696395690898
H         2.28277715774977    2.76789054752010    1.67271569542179
H         3.60923795535128    4.70695285570122    2.05991003730599
H         3.05255268015992    3.44891667470579    4.17369320125381
H         4.62632748161803    4.30064000852245    4.45238238967045
H         5.78296081930636    2.44344596817513    4.09876512729161
H         4.52924713478720    1.43065340898138    3.70435275320627
H         6.30138033099351    3.98270380230474    2.19351116239789
H         7.35915929827763    1.68085785739811    0.76674280009563
H         6.65814767876693    2.20672787593062   -0.74689459794485
H         6.43691050303777   -0.41658101316314    0.44475898139422
H         5.44991381906857   -0.02148451392366   -0.94170304174771
H         3.36955031054334   -0.89887816587909    2.30080114687464
H         5.15340324699268   -1.21322386926858    2.31441806886851
H         3.60004175683097   -2.65052057758819    0.90105035130569
H         5.09556991000199   -2.18784090561071    0.15638979151728
