36
 energy: -47.840868143826 gnorm: 0.131332960242 xtb: 6.4.1 (79825abcba525fcdf90b791dcacef51065a7a4e7)
C         1.74598302418634   -0.16875305015280    0.51046890849481
C         3.12211831524862    0.11736671669466   -0.13399661104520
C         3.36204176847699    1.55273117703613   -0.56400746732433
C         4.05115221372978    1.86188875886016    0.83547049805072
N         3.34823469495314    2.54084944130407    1.91687342689544
C         4.05375772616091    3.77764855058778    2.36417921919175
C         4.37468554730821    3.72320550133673    3.89493553569927
N         4.53056392247822    2.31774446337252    4.30124443483283
C         5.36834509210943    3.58512074054778    1.64361108849113
C         5.31768658696687    2.55531603614855    0.81031184179685
C         6.43240626894013    1.80851292212389    0.22407948778806
C         5.83901093564939    0.38042059284172    0.15132442956481
C         4.42052776071900    0.38617678383022    0.90170730759073
C         4.24347764635366   -0.93134182341724    1.65745519446756
C         4.05318599499607   -1.83426922567630    0.42798243439671
O         3.61498952579952   -1.08989831528710   -0.73525846122508
H         1.72728679995263   -1.26397487076314    0.51502259967073
H         0.98627586040218    0.17868416776358   -0.19124326172481
H         1.70565458775324    0.30340126878530    1.50309356420113
H         2.46056146946652    2.08094452786674   -0.89283961022964
H         4.08609014580843    1.50816216978841   -1.39014033762746
H         2.39030352600498    2.88333907487810    1.80594039899277
H         3.45408111073983    4.64174444045889    2.06649988578830
H         3.54417634801700    4.12187449571762    4.48861930951146
H         5.27871391905970    4.31963405217330    4.08017165386943
H         5.28006749945325    1.88844280455837    3.75652627600744
H         3.64030615849368    1.93195150615680    3.97859478579064
H         6.21779143781873    4.21883259185266    1.83955986599111
H         7.29265191040369    1.81932700320702    0.90392192836763
H         6.83057428617875    2.09937865943289   -0.75351892016868
H         6.58459082546841   -0.32450235519400    0.54723930944376
H         5.59242515250095    0.23305154011149   -0.90491978703094
H         3.33589439358292   -0.94083529721401    2.26723788088155
H         5.09201950632577   -1.11189348453872    2.33169407498174
H         3.34710777897147   -2.64591354003937    0.64768900382311
H         5.01708971645820   -2.20954139130434    0.07799464265910
