36
 energy: -47.841422430428 gnorm: 0.146561025983 xtb: 6.4.1 (79825abcba525fcdf90b791dcacef51065a7a4e7)
C         1.80664240861135   -0.11743309969867    0.28726533000885
C         3.24162974572575    0.10435619517474   -0.24430734837246
C         3.39760459347838    1.57911972847039   -0.56600302018398
C         4.04444651970120    1.89173399287410    0.85274925571667
N         3.32244684545380    2.56252684317811    1.92665164902713
C         4.07425121696149    3.75558815526830    2.41543805484429
C         4.26940604349409    3.60940104608840    3.96130918135844
N         4.79377586748289    2.29599763663996    4.36715828593570
C         5.36504166658990    3.61143064380432    1.64245424819548
C         5.30900724186902    2.58738987308942    0.80242312542348
C         6.32844334734810    1.87935991806895    0.02561759423329
C         5.87793827239024    0.40813847990866    0.19711591250088
C         4.43484802480457    0.42067793271572    0.89892457867265
C         4.25175194284270   -0.90960542571224    1.63048380032665
C         3.84903826189079   -1.86854521801965    0.49851725780076
O         3.65490291796941   -1.17173544516137   -0.75687160299579
H         1.46736353405002   -1.12816900491200    0.53862940801850
H         1.11380087857264    0.44727278876246   -0.33831075539179
H         1.75269855922015    0.39500328846252    1.25904658004445
H         2.42561141331514    2.02185469121204   -0.80894674992569
H         4.21496768032650    1.71739553067446   -1.28817013870753
H         2.34498979849121    2.81474229186773    1.75871567033670
H         3.49129601323171    4.66231677345890    2.23407328241885
H         3.26295338141352    3.61920925091632    4.39501387028487
H         4.75803310487488    4.47407840314900    4.43129152176366
H         5.72677092386182    2.21450545521590    3.96015380379383
H         4.19846983989779    1.56277788859574    3.97537081183525
H         6.24807166079861    4.14734401761551    1.95002637684458
H         7.28278595817876    1.92200784605866    0.56388944075950
H         6.44730761745628    2.21561099957337   -1.00958566323162
H         6.51827812061548   -0.20514658872085    0.84780833017652
H         5.83022193791609   -0.21217787276766   -0.70349766210763
H         3.44253550667359   -0.82522812740218    2.36101897246151
H         5.12844362177556   -1.18454989419306    2.23300973306762
H         2.99147943040884   -2.43386739439733    0.88657344792582
H         4.62990293354500   -2.57842843955585    0.21789791209371
