36
 energy: -47.841838987425 gnorm: 0.130827139261 xtb: 6.4.1 (79825abcba525fcdf90b791dcacef51065a7a4e7)
C         1.82148822506510    0.01477013584893    0.26453897803184
C         3.26828961954172    0.07305041843005   -0.27797166370721
C         3.57451056462520    1.51082963273829   -0.65448646410218
C         4.07951757048863    1.82044483044715    0.82135109100158
N         3.28462994151075    2.49493246602040    1.84004288897304
C         3.93724042408089    3.73323878444131    2.35793695676646
C         4.20918772736708    3.62402478330725    3.89523672316132
N         4.84135384760491    2.36676838549724    4.32462939452187
C         5.26831232964662    3.65286741302895    1.64645024418553
C         5.28781078817103    2.61138415156289    0.82645996868121
C         6.35949174960362    1.87597179059716    0.15218125883648
C         5.93914278509236    0.39319490926308    0.29894121186489
C         4.44814241408249    0.34467176657010    0.89035097086268
C         4.15832332465913   -0.90804088735373    1.71804219376437
C         3.78393685042887   -1.88175715318888    0.58897024093633
O         3.55815863307949   -1.26737011335584   -0.70361876606938
H         1.40973252302055    1.01936243221196    0.11916813677649
H         1.81725774141910   -0.14599402479696    1.34361476452721
H         1.15416788708264   -0.73901681811319   -0.17857340771385
H         2.73900566541952    2.16476731151898   -0.92670641969892
H         4.47767627163560    1.61787614217131   -1.27219246341995
H         2.28590759478740    2.60911426184753    1.64833063295096
H         3.32930633181709    4.62790356390009    2.20020997149983
H         3.30247709603336    3.70228070739270    4.50588781955702
H         4.94297720995158    4.38042906588263    4.20622271538685
H         5.68787472553012    2.30884942378542    3.75645583327850
H         4.27710900837340    1.52937336896315    4.16370942097814
H         6.01868998632388    4.38940685703339    1.88306964217123
H         7.37958439625863    2.03602722158196    0.52112366640765
H         6.49481510094660    2.14639928706046   -0.90014751056755
H         6.57976348466260   -0.15711620269892    1.00343899173621
H         6.04048198716000   -0.11722315964301   -0.66406335496007
H         3.45250082046216   -0.71387208165858    2.53028936830948
H         5.00925872736657   -1.35876164277669    2.24717355240415
H         2.91301653497264   -2.52646973496259    0.76624801421120
H         4.66143391353551   -2.49426391189323    0.37156414568030
