36
 energy: -47.837735195161 gnorm: 0.140996238702 xtb: 6.4.1 (79825abcba525fcdf90b791dcacef51065a7a4e7)
C         1.74718485456227   -0.00671708309206    0.40479022137285
C         3.17601098549275    0.04568884539076   -0.18398662073381
C         3.51823122464780    1.45080470196021   -0.64363700500198
C         4.11651807051687    1.85226424338861    0.77406298446430
N         3.33457203880441    2.61859633911683    1.73625238279146
C         4.07219817363537    3.76593523932318    2.34208932627033
C         4.13823850767906    3.75547856005668    3.90564391995457
N         4.61031152685864    2.50221279938500    4.51488748999815
C         5.40489000392211    3.60904063777960    1.64657375387178
C         5.37315637651288    2.56130096124866    0.83497890078159
C         6.33276708410757    1.75961215394577    0.07312224070424
C         5.77409480149204    0.32088755552423    0.19484254349195
C         4.36569937477314    0.36203072705820    0.96291262906843
C         4.21114746281872   -0.93001311208916    1.76608964518989
C         4.20310677878508   -1.87794519371523    0.55594412030167
O         3.60801978385189   -1.25594405372089   -0.60948268212267
H         1.51684402069301   -0.92870177619832    0.94955480323477
H         1.02051554919766   -0.02569038860183   -0.40875713387541
H         1.62369220953084    0.92070201237742    0.98315271808695
H         2.61562890464871    2.05651987522001   -0.77863631177265
H         4.17970726272099    1.44847663940441   -1.52180100033480
H         2.38598606823629    2.76984471881941    1.38334164654655
H         3.68464677902532    4.71480061615799    1.96216150993282
H         3.12372170913073    3.97697578461478    4.25612582970197
H         4.76912163397338    4.61525295317170    4.17037248002849
H         5.57671246223421    2.40977032713974    4.19819044097176
H         4.06065160989449    1.77010334917863    4.05948918229165
H         6.25344758823306    4.16701955000740    2.00734417289781
H         7.40120322579124    1.84053205572397    0.30597721834920
H         6.21478449605167    2.07934058178813   -0.96740316158158
H         6.49290678021800   -0.41748634093117    0.57911803433803
H         5.63245356810648   -0.15646275453259   -0.77996434794749
H         3.23847102477634   -0.97278017091578    2.26378828539709
H         4.94722586935164   -1.27741667867854    2.50414087156419
H         3.60478545798131   -2.75173728189469    0.84591463593262
H         5.17090047358341   -2.32363292885895    0.31684404317164
