36
 energy: -47.836992396414 gnorm: 0.139814322929 xtb: 6.4.1 (79825abcba525fcdf90b791dcacef51065a7a4e7)
C         1.89912826046891   -0.15964520353986    0.87610637451461
C         3.13871124994514    0.08552170475999   -0.01511517577936
C         3.27895260316962    1.55594144925881   -0.36288213925197
C         4.21230526158111    1.76578177318582    0.90747606964219
N         3.45588265491388    2.34033402230204    2.01302002321834
C         3.98874820416154    3.71450402959500    2.24802710620024
C         4.28914346065131    3.87560568867706    3.77543751304283
N         4.19550068444736    2.71131499394913    4.67006812468658
C         5.25694516683974    3.69591977919929    1.42598306630505
C         5.39095780149416    2.57971590102908    0.72342976945474
C         6.48203178596154    1.77274967414380    0.17356954646707
C         5.80584580705738    0.43185034763402   -0.20275547592727
C         4.58174114485219    0.29088661967319    0.82530049639056
C         4.60863905028776   -1.11798943053560    1.41918739791755
C         4.02240803531415   -1.93691170688668    0.25781253162900
O         3.45833931909597   -1.09072903209089   -0.77419277021871
H         1.44223423400682   -1.14062377903186    0.70637127600234
H         1.25767319304929    0.70120146843294    0.68182316307752
H         2.20274562506973   -0.25085242394245    1.92936680130262
H         2.42159248266101    2.20506481449056   -0.57115866851718
H         3.93466355814913    1.67131743634676   -1.23778754718715
H         2.45192022588518    2.23160093941151    1.84726735487849
H         3.37374348431004    4.49223474930667    1.78781971357901
H         3.58105992808086    4.63378938458914    4.12887507726034
H         5.26075293481877    4.33756494984741    3.99876552914940
H         4.85838517275562    1.99831075970282    4.36187578761094
H         3.32057008639009    2.19840522920995    4.53999925125081
H         5.95604303305865    4.50241546862162    1.57555776590439
H         7.17412278515904    1.76142088146091    1.02398529095994
H         6.99704515435326    2.23225891574756   -0.67640207888008
H         6.48308207060872   -0.42937990372876   -0.10690239220475
H         5.48784814972380    0.50572688987582   -1.24754912766412
H         3.87335920808061   -1.07338214057768    2.22727535123806
H         5.50782402409190   -1.60726011109721    1.81831250440540
H         3.22241853509049   -2.56368812798356    0.67344702696345
H         4.76442076297393   -2.56573445914606   -0.23860472951753
