36
 energy: -47.843621427974 gnorm: 0.140851945799 xtb: 6.4.1 (79825abcba525fcdf90b791dcacef51065a7a4e7)
C         2.02393047643843   -0.57517154021276    0.59120702432572
C         3.27603962903003   -0.03579915914685   -0.13834677921126
C         3.23117967689489    1.48101457290054   -0.14106768774066
C         4.15651779590086    1.49610779160767    1.15218854366229
N         3.51481808354089    1.79974992417506    2.42519122035414
C         3.79650077438338    3.24769223771725    2.65242490260984
C         3.89307431833374    3.49542884764212    4.19465501772269
N         4.32964912271994    4.81279975303847    4.68316505814222
C         5.08362985089580    3.46178615265921    1.88960916696713
C         5.26406339180526    2.42072883999406    1.08892507477207
C         6.16112894556442    2.04186889719126   -0.00456553863757
C         5.83424787607807    0.55534578321018   -0.28786185498187
C         4.69232218001855    0.12722398605907    0.75517194528035
C         4.82565601002544   -1.37283387515402    1.02051204190441
C         4.40794539961646   -1.99392548427851   -0.32219236886888
O         3.68025996155093   -1.01659485754452   -1.10611349193642
H         1.74582652196275   -1.60217001963479    0.33079689898489
H         1.21267461543052    0.14887916647247    0.50242603694052
H         2.33250338173445   -0.63237539750966    1.64542249896990
H         2.18846795763532    1.80955147912052   -0.07307945578089
H         3.80623191258613    1.98785629415358   -0.92920114384403
H         2.52871004170933    1.53838228234537    2.50590849217200
H         3.06099907605209    3.92035358018825    2.20359231738605
H         4.67060370794499    2.84193636833929    4.60640560555363
H         2.93435652880443    3.22042689581444    4.65567655462883
H         3.57309295155748    5.48365851447528    4.54053027408020
H         5.04214250531868    5.22921968452403    4.07947183268061
H         5.73177706145143    4.32209350037993    1.85324750630330
H         7.23412178944666    2.24067746723330    0.10261074433189
H         5.73538027468519    2.62368463557950   -0.82862122516579
H         6.68601171513277   -0.07260427818440    0.01169013392018
H         5.57709892608474    0.30424693279659   -1.32178536149424
H         4.11393965289717   -1.71567524485332    1.77652264025036
H         5.82670663167606   -1.70979935036169    1.32312098924023
H         3.71447722773363   -2.83616858713473   -0.19844922046461
H         5.22141024080151   -2.40476927291007   -0.92378473332380
