36
 energy: -47.834398620322 gnorm: 0.130592978948 xtb: 6.4.1 (79825abcba525fcdf90b791dcacef51065a7a4e7)
C         2.06261739120244   -0.67562183221652    0.66248940745977
C         3.25526087029856   -0.06598764352443   -0.11010120700635
C         3.15139143070361    1.43940467652066   -0.27056539449080
C         4.07700831768257    1.55986907539825    1.01695612694699
N         3.33018968806062    1.95519081558053    2.20459886767945
C         3.69524593720847    3.36763370858979    2.51964830941997
C         3.91237637350346    3.39588961117027    4.06923841794651
N         4.56626996396235    4.48834055880924    4.80658487066060
C         4.96774557241774    3.55272772943605    1.72534982475521
C         5.16383051508707    2.50725726393856    0.93415222819199
C         6.06413907494152    2.08370803163282   -0.14010730828866
C         5.92115341023137    0.54243758243655   -0.17009748796358
C         4.66989011601676    0.17981938845550    0.76694580978397
C         4.81865815671727   -1.26700222338193    1.23910243336827
C         4.49402679089606   -1.93889333839708   -0.10487257031265
O         3.82662697222768   -1.02676340865566   -1.01142098096438
H         1.15419952552897   -0.06393388227940    0.68475898451764
H         2.34635394259670   -0.86476966094500    1.69882150336434
H         1.65103771399505   -1.60838423376031    0.24967438878692
H         2.16913500081353    1.89584942159345   -0.43377400807846
H         3.72339649312095    1.82567810026791   -1.12632876564232
H         2.35141437787712    1.66316918688057    2.26752417474877
H         2.89416135196246    4.05838220609224    2.24393709977245
H         4.54091120872212    2.50958065941144    4.21256777736938
H         2.90314747163151    3.22912936725994    4.47043009081629
H         4.02729231183103    5.30782266585740    5.09070731048092
H         5.29213747294598    4.81871456019493    4.16668857904331
H         5.71189918173134    4.31497255444877    1.88894645986639
H         7.10635615585643    2.32387687353326    0.10161085203322
H         5.74181100332211    2.69958453363400   -0.98606236934805
H         6.78242902010004    0.10094899254164    0.35224954416805
H         5.84005851668747    0.13110341180965   -1.18123635038025
H         4.07510492616884   -1.46326328769727    2.01643282224929
H         5.81637019616648   -1.46032320746070    1.65673609365721
H         3.81709591090340   -2.79852236323676   -0.01329517705449
H         5.40444559928793   -2.28590666982459   -0.59797535669381
