36
 energy: -47.843713619358 gnorm: 0.129902525398 xtb: 6.4.1 (79825abcba525fcdf90b791dcacef51065a7a4e7)
C         1.79133898662694    0.09574790160331    0.56607090497371
C         3.14248680159875    0.06893305286247   -0.18534719000353
C         3.44468594158164    1.50262894123903   -0.58023382476707
C         4.11628852916263    1.75366904842651    0.83924451071395
N         3.36224265820734    2.31801774278435    1.95164641023357
C         3.96135720599046    3.64885169811415    2.26383201065416
C         4.06566139282498    3.88811001391434    3.80689700883646
N         4.75571695862615    2.85968145960044    4.60116629772748
C         5.31695357081263    3.55248317360424    1.60239663036652
C         5.37998404813197    2.45221239641321    0.86559085859016
C         6.41913919917387    1.66696986433838    0.19661127427585
C         5.89717771594681    0.20957121919912    0.17650449369375
C         4.44620126291056    0.26729871710484    0.85953946993724
C         4.15179843888129   -1.04580353384311    1.58579427869213
C         3.99125549271284   -1.89618342178002    0.31529358291516
O         3.57603530268850   -1.13155053567889   -0.84322370076368
H         2.00150246682176    0.32751317583742    1.61583148753553
H         1.40049053668185   -0.91666586681964    0.45416288387596
H         1.08044996435975    0.74449977549498    0.03351331873519
H         2.59024869338382    2.17912838148399   -0.69019776367129
H         4.17013507978105    1.56505729942754   -1.40397780718311
H         2.34489940005146    2.34421844741619    1.84411252817592
H         3.43756148107301    4.49023305734658    1.80274405677501
H         3.03580396083881    3.94493637037119    4.17744704397083
H         4.53745329636580    4.86692577992414    3.97011097944038
H         5.76880075292294    2.97836358082737    4.64963455247560
H         4.58711850762006    1.96670318310692    4.13248490961417
H         6.07411774420841    4.31143474988177    1.71303346217301
H         7.34458554680916    1.74803768272530    0.77910782975705
H         6.44755703491131    2.18089534652414   -0.76978007027388
H         6.55051535950188   -0.34559067677407    0.86534370407296
H         5.92652570582192   -0.23382213567554   -0.82385294211982
H         3.27235464984548   -1.05699962146196    2.23547543136089
H         5.03639836013113   -1.40876205381975    2.12705602355619
H         3.34872671206260   -2.77911561128147    0.43006035739137
H         5.00761284434399   -2.17533695195687    0.02977289796909
