36
 energy: -47.842957639825 gnorm: 0.142255084250 xtb: 6.4.1 (79825abcba525fcdf90b791dcacef51065a7a4e7)
C         1.82317257513403    0.00902148043199    0.45757325968278
C         3.23172913132480    0.08394329531271   -0.17591218542002
C         3.47972193597991    1.55396844376835   -0.45923067571983
C         4.14542115835960    1.74994781487016    0.97165253730414
N         3.36580926473300    2.43477693772432    1.99523803924023
C         3.99479491644311    3.75857329501301    2.27712008829057
C         4.00129135550984    3.92031960295105    3.83370915525001
N         4.74420699924861    2.81748349664761    4.46341907519164
C         5.38100526592785    3.50178684360858    1.73222845222376
C         5.38182441986186    2.48999740074548    0.87564625099642
C         6.39618049695429    1.74999703196541    0.12234391917272
C         5.84823411874585    0.30288901990827    0.07242215725184
C         4.48982979766791    0.26743148944805    0.92605121564311
C         4.30200703739184   -1.08992225715206    1.60477820477013
C         3.98609698521404   -1.96510112653319    0.38111368058153
O         3.54637133985100   -1.18919940441178   -0.76074947137201
H         1.82284639666023    0.51560964374814    1.42878356056046
H         1.42844295367998   -1.00764934076521    0.42865039826728
H         1.15886192029722    0.54610272817134   -0.23531553057067
H         2.62131164212262    2.16853144615929   -0.75120793235974
H         4.09101399293837    1.65375442577818   -1.36757683237304
H         2.35236740019864    2.45776331000193    1.85507879068783
H         3.45792052800490    4.58184788854067    1.79871486404644
H         2.98825430415495    4.07771513815152    4.22116946960836
H         4.50340213263552    4.86888522507808    4.06911254484412
H         5.65256162789538    2.81541187616894    3.99687757127724
H         4.22764761499892    1.93557417502301    4.43341507698206
H         6.15550732081245    4.24972779305567    1.77994229692832
H         7.36659637510636    1.77660590594667    0.63215784207044
H         6.53529055350391    2.15840531895379   -0.88398124536305
H         6.50695874216942   -0.39190053039050    0.61362791133089
H         5.59605075912488   -0.06965580165967   -0.92546959196267
H         3.44920886450380   -1.17011597620976    2.28443742849117
H         5.03288979808786   -1.69657373718897    2.15705046805808
H         3.27198231566691   -2.75869280824604    0.63769973001118
H         4.87836306768201   -2.51573680329702    0.07600283428311
