36
 energy: -47.843028567899 gnorm: 0.124520170780 xtb: 6.4.1 (79825abcba525fcdf90b791dcacef51065a7a4e7)
C         1.94937119256568   -0.31155874887462    0.69311377281771
C         3.19966857969077    0.02381921821633   -0.15259699247572
C         3.17024969669219    1.51694152353334   -0.42178841279473
C         4.07665543128678    1.74880530260246    0.86415792605272
N         3.46679358064847    2.28015366420535    2.07669671668963
C         4.28068993097931    3.42894420854044    2.57204535054478
C         4.48823955587130    3.30105071342167    4.11792375062998
N         3.41140285120601    3.71890217835771    5.02925716605737
C         5.48779777716508    3.32979272588858    1.66789660519332
C         5.25745523462384    2.54498737202937    0.62459680097819
C         6.12013456321977    1.98388389316049   -0.41700314546273
C         5.91998754572610    0.47092792932297   -0.15668713560916
C         4.59572985373420    0.32294368264281    0.73754119881150
C         4.62237798365739   -1.05552990618900    1.39894673038657
C         4.36437309800180   -1.93928544302021    0.16788958344470
O         3.69750634117698   -1.13625471025779   -0.83693077077975
H         1.86945246097794   -1.40084006208119    0.60968515975279
H         1.04358570086758    0.03610900373226    0.19416754726995
H         2.07061234213894   -0.03403823808052    1.75053645748436
H         2.14622625247544    1.90397552050375   -0.38454200602830
H         3.72454594848800    1.87818811873729   -1.29984564984536
H         2.44736154626885    2.31687467602276    1.99516578700360
H         3.85958989885005    4.38977444924992    2.26485365579963
H         5.38041084815339    3.89668514889148    4.34240744116148
H         4.70080744544201    2.23679096660736    4.28960024230781
H         2.51912022540511    3.43675685568907    4.62060189155471
H         3.43566750202098    4.72707826478540    5.19804726314014
H         6.38750766959618    3.89869232906491    1.83648209319928
H         7.10749890287154    2.44675596579727   -0.30217133199197
H         5.77244507517696    2.16798935993843   -1.43879395951837
H         6.77592154374296    0.02814464343799    0.37328858953167
H         5.80518101325307   -0.07969142093641   -1.09573549488490
H         3.79410429553807   -1.16508101246343    2.10434991773960
H         5.54629572439091   -1.35239432146154    1.91418238894548
H         3.85754202790868   -2.89709770765638    0.34481286395444
H         5.34537865098234   -2.16188363150920   -0.25697414210661
