36
 energy: -47.842865862533 gnorm: 0.125019624790 xtb: 6.4.1 (79825abcba525fcdf90b791dcacef51065a7a4e7)
C         1.71552552730915   -0.02937247565364    0.44549954593524
C         3.15972233350074    0.14919049549890   -0.07733837609339
C         3.48624371951504    1.58050187491738   -0.46136340524653
C         4.17193664218561    1.73446273602378    0.96520989481906
N         3.32422806197193    2.46245140165041    1.90112418378237
C         4.03248366334636    3.73173743199556    2.23995188937962
C         4.13692111095726    3.88044221370757    3.79434994564180
N         4.63011673824007    2.67432376347756    4.47753518980813
C         5.35896293979028    3.63812397510376    1.52154074761355
C         5.40102831897016    2.48626142243318    0.86664015909891
C         6.45221018576981    1.70611037242822    0.21061865209751
C         5.84811816762834    0.28649889897743    0.08164151491775
C         4.49438983201261    0.24649159821634    0.94246733266131
C         4.34414577239232   -1.10085259004082    1.64989027456693
C         3.98758127779227   -1.90643331657153    0.39013096790832
O         3.61533704489128   -1.05185228581868   -0.71908454907039
H         1.41408275347363    0.60441098421469    1.28652980537624
H         1.65445592799001   -1.10105622521612    0.64051750479540
H         0.93396785295874    0.07580102447422   -0.32128981314503
H         2.56595286645524    2.16325868115745   -0.57654096175721
H         4.15076524281772    1.72058251341210   -1.32595377661060
H         2.32490736089683    2.57797186676957    1.71337287091423
H         3.43895660255933    4.57156674497490    1.86941298972621
H         3.23753552183307    4.28950488134139    4.26860327319668
H         4.84677633819436    4.67046083942320    4.07592206675392
H         5.47874253954944    2.29485892075539    4.05490759676442
H         3.84504197997342    2.02452080334998    4.56067138389520
H         6.09693975019302    4.42258617856547    1.48210731739280
H         7.33869117836307    1.67713842286248    0.85531805281436
H         6.73611008549905    2.05197906819573   -0.78868859090409
H         6.51052246943021   -0.49614288129585    0.47944385151010
H         5.49068437527435   -0.02303447019191   -0.90557892842274
H         3.55017077145433   -1.06122889014159    2.40066724476396
H         5.25268862826267   -1.56538500585811    2.05729641293623
H         3.22168841146716   -2.65117991131918    0.64379321934604
H         4.89383175908572   -2.40709935602804    0.04303643660365
