36
 energy: -47.843445254003 gnorm: 0.138363606727 xtb: 6.4.1 (79825abcba525fcdf90b791dcacef51065a7a4e7)
C         1.83400870540864    0.10525576004359    0.70786497266876
C         3.14962146935079    0.12583707333366   -0.10434689469990
C         3.43247422315366    1.54727861273330   -0.55406012617447
C         4.16947312089088    1.77732748967024    0.83622771771049
N         3.33744244192251    2.47203561112335    1.81071141132971
C         3.94382726426272    3.78322362994186    2.18567897017592
C         4.04746176896214    3.80868234772940    3.74701985092874
N         4.42565474642610    2.52267553463388    4.35353635307433
C         5.33925449431424    3.57538730910492    1.64345001211640
C         5.44278513247261    2.44868183228678    0.95260427530174
C         6.48176184357393    1.68456076977756    0.25932970229736
C         5.85705855613926    0.29100948108977    0.00512577386388
C         4.50801651032321    0.29324588672358    0.87419576363294
C         4.38690149947368   -1.03979120813187    1.61358748549926
C         4.01985929792857   -1.93926826334244    0.42223820154238
O         3.49523485304336   -1.14720045426599   -0.67166826300737
H         1.94040525217116    0.72194251842064    1.60689686158283
H         1.67420272051158   -0.88975567671987    1.12581455168198
H         0.99788613722274    0.51298480191550    0.12091023198653
H         2.52178903246669    2.15228143580388   -0.62062359483208
H         4.11169831900287    1.69766956634484   -1.40539152274212
H         2.35232308272418    2.47938147508951    1.53372173517595
H         3.49119749594106    4.72917486382478    1.87715135028807
H         3.07150700176093    4.09456275363574    4.15558759813427
H         4.87218396746353    4.50085758419953    3.96618523702271
H         5.43642469760198    2.37758484675636    4.34540016241081
H         4.00798068544827    1.73448918178465    3.85372784793720
H         6.02540531691630    4.40147083167128    1.73471222890066
H         7.34518405504462    1.56719446181715    0.92495158019074
H         6.95415108071637    2.22676170367411   -0.56632509681908
H         6.53446977642541   -0.54354576081176    0.23790445179107
H         5.56766112126318    0.04352428960104   -1.02111700454549
H         3.61492803175373   -0.94319023473580    2.38193481412363
H         5.35825308605477   -1.20543736745401    2.09965094798662
H         3.24553541820767   -2.69966136295872    0.58899784453450
H         4.93963862578181   -2.41489573638782    0.07551708858371
