36
 energy: -47.843222070791 gnorm: 0.132836951777 xtb: 6.4.1 (79825abcba525fcdf90b791dcacef51065a7a4e7)
C         1.78695688559878    0.00811759821724    0.39361431886077
C         3.24173876701569    0.10756657500502   -0.12084485980520
C         3.46354004765316    1.53347906257596   -0.59022904319802
C         4.08061452374849    1.89585956851301    0.82994334671369
N         3.25411372653235    2.53906777542096    1.84369506309945
C         4.01327169594991    3.73340079602437    2.31778899369520
C         4.22302296827320    3.55097159030129    3.85788561341034
N         4.69475752848573    2.20152653903952    4.20598082711692
C         5.33322099803225    3.61996786742025    1.59026432394912
C         5.34071258817736    2.59654751237760    0.74764560663583
C         6.35817289544997    1.86061387582509   -0.00545427700227
C         5.80109880725482    0.42615975384003    0.16445409766984
C         4.44053938963502    0.42799773737297    1.01538112152970
C         4.30065150161674   -0.86534590382757    1.81915378642856
C         4.03404170407229   -1.87206249319563    0.68843144900819
O         3.70603854767522   -1.18379636485438   -0.54361451174648
H         1.06179855961028    0.14140027950513   -0.41648583096701
H         1.64752632669475    0.70646248005630    1.22013782841381
H         1.45861201881244   -0.98434862537601    0.73575498687436
H         2.70022337742298    2.20913060467606   -0.99103984207184
H         4.20172880724280    1.77060383810716   -1.36970140130926
H         2.41890326034619    2.80978471581628    1.31798297411143
H         3.46211064343553    4.64473851188294    2.07167562368346
H         3.29639008018275    3.75341967611162    4.40698413320700
H         4.98820197649028    4.23415005086308    4.25168125773814
H         5.15811848733812    1.78904173145140    3.39485426206425
H         3.98823874802532    1.53640372429319    4.52837925242535
H         6.07827461430394    4.38288624125960    1.74645778451267
H         7.33102650555451    1.94536649989968    0.49324211872832
H         6.48823896419463    2.29932027112471   -1.00016971489216
H         6.53317177525423   -0.18281602933198    0.71470130412487
H         5.57704065690476   -0.04808203435235   -0.79630950838932
H         3.45691872953047   -0.79635897846934    2.51124354073682
H         5.22191611657516   -1.21788092665302    2.30310712127165
H         3.21656394548584   -2.55782306542494    0.94736478151129
H         4.86940384454899   -2.54282826337780    0.47706821571593
