36
 energy: -47.842009353721 gnorm: 0.134937763889 xtb: 6.4.1 (79825abcba525fcdf90b791dcacef51065a7a4e7)
C         1.86577483632962    0.08366089857954    0.59332838831048
C         3.18576461598512    0.25903596583357   -0.19268636584904
C         3.43765839970826    1.75125912435064   -0.30477228371063
C         4.21514870077203    1.61440798158873    1.07572426785708
N         3.47151571826912    2.16782901215723    2.20055672791951
C         3.94942045225154    3.56798752222426    2.39723017632084
C         3.90458116985922    3.84111613159120    3.93754307037054
N         4.93750822536603    3.08958582579990    4.66759075181021
C         5.32765182071875    3.47237251700232    1.78423637904002
C         5.46328458911027    2.34014196074396    1.10813775244373
C         6.49267981945555    1.65733374660918    0.32194336127907
C         5.81459803860973    0.32059828892619   -0.06561621970549
C         4.50531703134040    0.13769187105766    0.84407085903950
C         4.29596930642155   -1.32954124316656    1.22057774182347
C         3.77270060732591   -1.89038593499940   -0.11161412749564
O         3.39396656078825   -0.86460443081845   -1.06217522604280
H         1.61524237133740   -0.97178401906420    0.74548167519901
H         1.02982530049568    0.43158940791506   -0.01527795547624
H         1.84048049379670    0.64344894787848    1.53982578202307
H         2.59319176608095    2.44787430085531   -0.26722204636354
H         4.11088928357925    2.24922041747851   -1.01717853727791
H         2.47515124655644    2.19398346213295    1.96858437609157
H         3.27207662061664    4.26020764918739    1.89035409978004
H         2.95087368458078    3.45879119236830    4.31887310042370
H         3.99411711774946    4.93623713145461    3.93774155207291
H         5.90899916831233    3.31061325803997    4.44370323115106
H         4.74102838556802    2.14116962277793    4.33987095271500
H         6.22552080903826    4.04768430387682    1.94042007169852
H         7.42699322928703    1.50105480999001    0.87417574117076
H         6.74617156154051    2.23588314887505   -0.57240657219787
H         6.53897582048139   -0.47916646208664    0.14700431399485
H         5.60030942437095    0.30030912791816   -1.13885560310463
H         3.62207753932262   -1.51295191315637    2.06192358457919
H         5.24965459463642   -1.82888835453897    1.44048019801938
H         2.87246122939996   -2.49714183694325    0.05270341273199
H         4.53890592331384   -2.46602321963338   -0.63506629076049
