36
 energy: -47.846409557029 gnorm: 0.128905331719 xtb: 6.4.1 (79825abcba525fcdf90b791dcacef51065a7a4e7)
C         1.72676358875940   -0.03445156395759    0.27400634809820
C         3.20458495386952    0.16459333204366   -0.13510707959448
C         3.41749440744389    1.60756944927489   -0.55371573689682
C         4.12932576333267    1.84317650804210    0.84870202359013
N         3.33565791520171    2.41780248973071    1.92777996619313
C         4.04406986221192    3.64941023791400    2.38473959552330
C         4.23723694393197    3.66164942468617    3.93770781382726
N         4.67959187854181    2.38362242469442    4.51708232126268
C         5.38524340895164    3.56581851321463    1.69286441576346
C         5.39763261867947    2.53370582050231    0.86097407541940
C         6.32053185178271    1.83238692365831   -0.03367223926359
C         5.92256828596056    0.34950098662041    0.16515761930876
C         4.50363808442638    0.36868809987792    0.91447132256335
C         4.27461233357060   -0.95541264225619    1.64430779427532
C         3.88195036536966   -1.84558857699661    0.45414164940047
O         3.62567610545290   -1.06736611129661   -0.74081729269766
H         1.48485520688093   -1.01588938551696    0.69607418499616
H         1.08067646883754    0.23856777959971   -0.56163677831303
H         1.35243189857124    0.63549267918289    1.06198495597444
H         2.43501212442231    2.08178580025052   -0.65197073325082
H         4.12491797936509    1.82784875736636   -1.36596992767261
H         2.35184304712582    2.62519571783089    1.73716583407856
H         3.46730347538215    4.49345340763338    1.99767579381215
H         3.32721946816476    3.95032344732252    4.47592563518246
H         4.93661113855759    4.47974736260536    4.15883725727748
H         5.70012066235829    2.35433601104885    4.53797985507400
H         4.28777453059650    1.59775146074291    3.99326567034999
H         6.06549479058023    4.35124343147337    1.97906624113345
H         7.36851664033486    1.97348067583178    0.25640651689559
H         6.21273142645211    2.20259901304643   -1.05844604598405
H         6.65977453172050   -0.22805721057965    0.74179251192790
H         5.86159368418246   -0.25435042761250   -0.74578672756655
H         3.49022838625095   -0.95374728068628    2.40612893690407
H         5.17660871346699   -1.29570809226920    2.17139581896895
H         3.06106820219842   -2.51926670753107    0.73323691150638
H         4.71434232721409   -2.48350989676390    0.14982101701305
