36
 energy: -47.845418595415 gnorm: 0.143639852474 xtb: 6.4.1 (79825abcba525fcdf90b791dcacef51065a7a4e7)
C         1.78031766670724   -0.10383853582521    0.66617879199535
C         3.12915268922747    0.10257540840715   -0.06113546013134
C         3.30429283797893    1.52625713564535   -0.55631219118722
C         4.13983316141214    1.89113267360533    0.74665686374331
N         3.42966892358630    2.51617943400150    1.85548334282076
C         4.14053485599675    3.73783124696089    2.33480964311418
C         4.08828932961756    3.59826599454335    3.89268176491781
N         4.49451211508799    2.28016560589433    4.40483421419328
C         5.50137488854123    3.55307828130677    1.70361548353299
C         5.39362876813927    2.60693990306069    0.78130069552389
C         6.32465326361198    1.91592708776504   -0.11294640291381
C         5.83201802151724    0.45096916196646   -0.02312548381916
C         4.49715765949741    0.41586459464148    0.86688437515893
C         4.45558355905096   -0.89058227435075    1.66049952122405
C         4.08630646848705   -1.86280396657851    0.52846088323189
O         3.52774056865294   -1.16282431271644   -0.61051505831151
H         1.72145209005400   -1.08938716246074    1.14063624000439
H         0.98879013744901    0.04743054636500   -0.06925944374817
H         1.64301129583275    0.60590243952043    1.49519899520655
H         2.37637299772214    2.07231644756699   -0.75778336514987
H         3.94111518641588    1.56374921984896   -1.45173365487121
H         2.44440806393220    2.66349523343011    1.62139686696273
H         3.56140724527785    4.60836003824846    2.01594045656362
H         3.05689247631258    3.62627477202242    4.26224766895723
H         4.70534758227175    4.35516479517968    4.39631858858907
H         5.50593380672301    2.28002499536946    4.54554505407215
H         4.23891757295808    1.65513366794231    3.63704231860165
H         6.31099954397073    4.22643470133820    1.93305996546488
H         7.39493706585403    2.03198247042644    0.09525776821844
H         6.13286708821448    2.27460320017810   -1.12951355662937
H         6.55277100230528   -0.14492362101192    0.55565015594271
H         5.57528054893539   -0.11350179930421   -0.92514124443400
H         3.59831884569653   -0.78150749735175    2.33044899268886
H         5.35090651264641   -1.06884890360560    2.27192250240818
H         3.25781821249401   -2.46581599988218    0.92288148415497
H         4.82911557707530   -2.48823324373359    0.02895724455988
