36
 energy: -47.842853849205 gnorm: 0.138815843840 xtb: 6.4.1 (79825abcba525fcdf90b791dcacef51065a7a4e7)
C         1.80823297183493   -0.13556247759280    0.55339366512777
C         3.13722303924584    0.19410066863303   -0.16497689428664
C         3.40345360688986    1.67921598166137   -0.32714195490665
C         4.19759160344179    1.61982407301140    1.04937813810042
N         3.55882993743764    2.20328419688204    2.22243853264881
C         4.04464447764693    3.60933788002870    2.34291467846031
C         4.13805454103891    4.16200139518763    3.80408243136078
N         4.63179215351851    3.31483421601151    4.90100387864054
C         5.37649144457226    3.53363054964763    1.63236745156369
C         5.43485859015704    2.36368659239951    1.01166138759686
C         6.44081674701056    1.64409563684028    0.22793935476314
C         5.86828496804668    0.21674919500248    0.04975826420947
C         4.47885810097875    0.13686411452666    0.84870346327675
C         4.33598180528521   -1.32951044837117    1.25820178221073
C         3.87216829960319   -1.93869952589975   -0.07478650460456
O         3.46521002306433   -0.91505162128485   -1.01593660199607
H         1.63843236065400   -1.21770822450857    0.55646852963516
H         1.02899551704723    0.25622068179421   -0.10201651697731
H         1.51119385487228    0.33866477509468    1.50035515574901
H         2.50290114779594    2.29548680006115   -0.42212708952875
H         4.13442846187300    1.83098345772782   -1.13421713295217
H         2.54380882784769    2.10344626084300    2.13876106617220
H         3.39482249542677    4.31871573795716    1.82387598661275
H         3.07742561922339    4.29774261258648    4.04446447548003
H         4.72383659194208    5.09157323658616    3.79618872383483
H         5.56599492674778    2.99371041017801    4.64231858941429
H         4.06883500123819    2.46824192437338    5.00990119859722
H         6.22245149951861    4.18141979888794    1.79443651658701
H         7.45748042307968    1.71112446549527    0.63318909031692
H         6.55022772179055    2.10687550723653   -0.75831786121812
H         6.53922379687457   -0.55468173428584    0.45508495068251
H         5.65435064606946    0.07581884642409   -1.01445260208184
H         3.41346335960020   -1.44897467324963    1.83293686332529
H         5.13253355448120   -1.81615558794956    1.83777238358188
H         3.06185363778182   -2.65999643168904    0.09463851801356
H         4.69134134138510   -2.47149171442624   -0.56214576457881
