36
 energy: -47.845292568590 gnorm: 0.150074113631 xtb: 6.4.1 (79825abcba525fcdf90b791dcacef51065a7a4e7)
C         1.79629654438104    0.12106255925615    0.59603748340698
C         3.17379999613670    0.10549444832412   -0.10623776724442
C         3.46650700195985    1.51724913172580   -0.57954004755868
C         4.10747725782935    1.82928787422564    0.84200105884371
N         3.34292149525566    2.55358948995385    1.84964909954487
C         4.09871025377761    3.77649422047210    2.25065361035076
C         4.10660109123299    3.65307521682009    3.81074306062362
N         4.49612400585957    2.38197621356070    4.44104849959994
C         5.43389364114863    3.59507363024387    1.56596592798930
C         5.35126220496916    2.55683604059701    0.74579131299124
C         6.37274352255562    1.77834284324272    0.04257905392980
C         5.89367710128849    0.31605619865128    0.21308462654160
C         4.46524585986016    0.35271753561516    0.94345592779846
C         4.23778316310879   -0.97265490804567    1.67147068777369
C         4.11665657806095   -1.90744429738169    0.45714403409838
O         3.48156685045362   -1.19454046225582   -0.63265536854849
H         1.72705918954996    0.65710158200220    1.54879635953334
H         1.43878286621792   -0.89844626560022    0.74787057924054
H         1.08371436263829    0.57261255211522   -0.10978758402768
H         2.65679690765058    2.15844697215229   -0.94428863685913
H         4.17448858580964    1.63684763142227   -1.41211811556494
H         2.34372933681403    2.62164075061941    1.63936011195303
H         3.46837275278530    4.61403853464405    1.94068443911030
H         3.09649388709951    3.90532908627373    4.15307965034756
H         4.81027358830047    4.42843869714351    4.14385448395098
H         5.49875295626664    2.18922689254527    4.42217291582229
H         4.06999468144659    1.60799343253872    3.92640071375975
H         6.20945810116114    4.31884163713194    1.75624302820142
H         7.44143368085194    1.72908418967457    0.28299575817651
H         6.30106595701432    2.11267418589151   -0.99757677798593
H         6.60801459744293   -0.19233683499702    0.87702196011518
H         5.79243886497448   -0.24326284320946   -0.72237625793436
H         3.37463957942287   -0.86469058287106    2.33401069669575
H         5.07551172795657   -1.21465348640095    2.33995239623604
H         3.50887989100186   -2.79601180056451    0.67310516076202
H         5.14717413254129   -2.18419658260937    0.22503893191148
