36
 energy: -47.847919917358 gnorm: 0.125688719914 xtb: 6.4.1 (79825abcba525fcdf90b791dcacef51065a7a4e7)
C         1.79605778632527    0.07295640197220    0.40617743209176
C         3.21605539589343    0.15174671075731   -0.20073893503755
C         3.39643048422881    1.61881779784436   -0.54412053229288
C         4.02019908783810    1.83005106663796    0.90338875584609
N         3.21576420254695    2.52777855106730    1.89866431762082
C         3.98104883505341    3.72303460151061    2.36042129792067
C         4.25644750705110    3.50862583482482    3.88598937318865
N         4.82016072008684    2.18624637355908    4.19943100590937
C         5.28213580067165    3.65208873441006    1.59454627572546
C         5.27615824737327    2.54210269169218    0.86973828803695
C         6.38729298788279    1.84332978747747    0.22083232530460
C         5.92588076357313    0.36758599432788    0.29917702786819
C         4.44796843914567    0.36884591205159    0.92445733301788
C         4.25277954040497   -0.94667676424316    1.67921420842944
C         4.01141861023421   -1.84634877548455    0.45633761247359
O         3.64733099687749   -1.10879517284830   -0.73642742771970
H         1.59215381879644   -0.89224647805877    0.88229473021351
H         1.02662231059625    0.26471454091160   -0.34313252781210
H         1.75487739625136    0.78349958693056    1.24480269717659
H         2.38645721099976    1.94552944077775   -0.81434275551182
H         4.16672173241813    1.90336978572876   -1.27515367663215
H         2.31505054229309    2.74504238324918    1.46421219220717
H         3.53554541306267    4.69050908622281    2.11464401022605
H         3.28664899737434    3.58911948360221    4.39012677258224
H         4.87999834424446    4.33281565627807    4.25908747941473
H         5.65061799230737    2.02529859545183    3.62740834477386
H         4.11265274408986    1.48804994987002    3.95973932515244
H         6.09900000431395    4.34234377163404    1.72806198940228
H         7.27199870666980    2.12559074626816    0.80388438841067
H         6.52550800601280    2.19290696781250   -0.80753122800997
H         6.47799072885538   -0.29369399928266    0.98287112155855
H         5.96234200267632    0.01397028008413   -0.73610094144295
H         3.37591631841514   -0.87464892046554    2.32848703672566
H         5.16311855293290   -1.35516409185421    2.13925894335639
H         3.13605561454134   -2.48805857034427    0.62226549111581
H         4.86869673690164   -2.44162508403811    0.13516578136300
