36
 energy: -47.839986623638 gnorm: 0.138590763149 xtb: 6.4.1 (79825abcba525fcdf90b791dcacef51065a7a4e7)
C         1.79112296567883   -0.03213361090409    0.46541231324401
C         3.20217103322818    0.09891518212265   -0.15322992761888
C         3.54151096272120    1.52716287170000   -0.53754838319236
C         4.12312894917816    1.76711651868945    0.92297648565364
N         3.34198666420075    2.50053137105126    1.91112236550871
C         4.00136243775189    3.78523280661402    2.28832662016776
C         4.23698530040555    3.78501850783409    3.83547089858780
N         4.58488561776110    2.45696600207640    4.36457167040848
C         5.33305560341348    3.65609654318122    1.58523171070717
C         5.34820008539526    2.53085853119051    0.88447378093193
C         6.41627919492309    1.82480882264497    0.17406261866621
C         5.93755324570145    0.35430527019752    0.24686222871744
C         4.48297643242368    0.28756976287117    0.92136558428365
C         4.11279059896939   -0.99951205347126    1.65943042937705
C         4.01446912171024   -1.93173288294892    0.44107527425505
O         3.53385966368515   -1.18511942638479   -0.70383366206009
H         1.42643359605117    0.94322486155093    0.80535147751697
H         1.69803887321016   -0.78295219313202    1.25146216749762
H         1.08315438769358   -0.28795636717318   -0.33658207484190
H         2.64193571227026    2.05543959811673   -0.87145660302090
H         4.32433356623920    1.68766359067328   -1.29263529565190
H         2.38576637107294    2.62592661399793    1.56884152409973
H         3.32602490216941    4.62491950780291    2.10466338751847
H         3.46083383024802    4.34620036790742    4.36820604316459
H         5.21993685439299    4.24599529813892    4.00462576281117
H         5.29847254717254    2.06590557070231    3.74761232708275
H         3.78232691353617    1.82587283629795    4.30872517312191
H         6.09155718923264    4.41883682748618    1.65192741531310
H         7.44265958754459    1.96065323214214    0.53519256481321
H         6.40545415883586    2.23468004998751   -0.84118496858564
H         6.66294229876851   -0.24160792822621    0.81979547295996
H         5.88830271042855   -0.11212170969687   -0.74217482464628
H         3.25646284847185   -0.92067185165845    2.33479656437180
H         4.94714796941135   -1.35694530460697    2.27855036866642
H         3.27762655868570   -2.72942876330494    0.60333505224553
H         4.92831740293161   -2.35560195617677    0.01959293085264
