36
 energy: -47.838153533387 gnorm: 0.142818104727 xtb: 6.4.1 (79825abcba525fcdf90b791dcacef51065a7a4e7)
C         1.83868257588485   -0.14591070179573    0.84905724504618
C         3.12935534216625    0.08683486829314    0.02994677023148
C         3.26327736223200    1.54618808950363   -0.36387653623637
C         4.15577499088692    1.78097132328326    0.93123541862152
N         3.48794228958036    2.46531561946586    2.03131963591421
C         4.20017095083197    3.74609549922367    2.31389790558563
C         4.40786707647624    3.71643775049855    3.86475455662078
N         3.66300059452616    2.66906867621896    4.58092329998283
C         5.41197422137341    3.66658150218978    1.41410032196161
C         5.37077860806207    2.53414473575674    0.72610211551831
C         6.37057373747509    1.82164655716842   -0.07185732300001
C         5.71940749544854    0.41928779865730   -0.15079684115372
C         4.53576992372907    0.30647592186308    0.92692188991105
C         4.63794457099729   -1.09826517598449    1.52242142148232
C         4.27718199938802   -1.90949168980475    0.26748955551763
O         3.63516090660765   -1.04204352610238   -0.69924524755981
H         1.68072884403222   -1.22861331974579    0.90089141089694
H         1.00021070339513    0.04642406199312    0.17805812348494
H         1.79881290426024    0.32204425215675    1.84368700612162
H         2.29864775707589    2.05945421098558   -0.28736350654454
H         3.79146749918548    1.91097983358075   -1.25644032843921
H         2.49221951751458    2.64774102462820    1.88133786793658
H         3.55336778838588    4.58574169529736    2.04645321607570
H         4.05884472442015    4.64862448128773    4.32339844659274
H         5.49309036236717    3.58305789663916    3.97341441856653
H         4.07362390623620    1.80279322962506    4.22917232966404
H         2.68109163825725    2.75284858811450    4.30828137807575
H         6.27229189480464    4.31202296705250    1.48341512445088
H         7.29122826145947    1.70360374266980    0.51191179807712
H         6.68864374099765    2.29666862126552   -1.00568000305704
H         6.51057003356971   -0.30139182504100    0.10265341529661
H         5.37731963969734    0.22085692293258   -1.17147069617554
H         3.98459203451090   -1.34357194156575    2.36419780096663
H         5.64208382999938   -1.34777132067350    1.89211223011153
H         3.68635689044126   -2.80216307789488    0.51171773223040
H         5.15085497419784   -2.26438097358689   -0.28312843143157
