36
 energy: -47.839379500162 gnorm: 0.134184622642 xtb: 6.4.1 (79825abcba525fcdf90b791dcacef51065a7a4e7)
C         1.74169679307027    0.28747075963592    0.58560419307780
C         3.14140061211684    0.14872559909894   -0.05667896997106
C         3.59762757635392    1.46075700140821   -0.66755889154300
C         4.19603888798155    1.85232041980163    0.75285376694637
N         3.21074146468520    2.52610674091842    1.58934278109973
C         3.84704611373164    3.68953221583687    2.27423313932732
C         4.01357321194513    3.45242212101188    3.81216068573047
N         4.88074589930692    2.32634245795738    4.19250506217480
C         5.21756239355894    3.60971556709677    1.64198337750015
C         5.44375763756789    2.57340195440558    0.84678438022747
C         6.47058838101607    1.73253063065940    0.22828841752624
C         5.92802287737137    0.28358086065064    0.17327697766201
C         4.50318123197237    0.36888541437390    0.90659240665903
C         4.29372717021098   -0.89323981453796    1.74416375507517
C         3.98314298783286   -1.86692484530500    0.59587503010638
O         3.37095349357675   -1.18802333479703   -0.52820252078182
H         1.71470663904434    0.80136833564554    1.55259019955181
H         1.42964980703465   -0.73552053988905    0.80097142222880
H         1.01609845488253    0.74846514173751   -0.10058165782211
H         2.85255215598337    2.13240270405835   -1.10751490884392
H         4.36340465688130    1.35410630338998   -1.44918479144219
H         2.39503935791864    2.81762228803818    1.04447018110287
H         3.29268200403298    4.62863050243494    2.19898969250202
H         3.06241067384507    3.28710715924674    4.33091275620532
H         4.25877503114643    4.39199143379449    4.32635161071225
H         5.88120884865291    2.52815107462101    4.15903015399294
H         4.57447017238662    1.60640515932063    3.53418648138632
H         5.96236604797127    4.28340636292142    2.03307665430321
H         7.42112285234259    1.95984706925990    0.72541687773390
H         6.51645867510459    2.13982320925100   -0.78701840237589
H         6.60029445320714   -0.37450858663200    0.74294664561142
H         5.88337791998925   -0.02464595954990   -0.87609287648769
H         3.47759100347864   -0.81230399221852    2.46735360290694
H         5.21048374516101   -1.16239709330850    2.28668748118456
H         3.32601860680069   -2.69089960229417    0.90383129898582
H         4.87734995443197   -2.38809572541247    0.24772872266309
