36
 energy: -47.846818345903 gnorm: 0.136838154931 xtb: 6.4.1 (79825abcba525fcdf90b791dcacef51065a7a4e7)
C         1.67117627228028   -0.22421952274550    0.36741427095648
C         3.10586664934302    0.06294120934656   -0.13273660557634
C         3.32668639902065    1.54930207496193   -0.34419286147839
C         4.06932518756328    1.76837359707528    1.04486633036887
N         3.27818125337359    2.49242960701882    2.03195653462109
C         3.91980224489267    3.80881419303658    2.32000403920880
C         4.21203530152623    3.82058473995503    3.85741579074219
N         5.09103033883030    2.73712462169157    4.32452136137199
C         5.20023100157911    3.71177088638510    1.52281516181964
C         5.31053031626642    2.50432043772217    0.98676563861409
C         6.33391747403267    1.73014243292886    0.28156329856121
C         5.75244998953193    0.30134703868280    0.15004033160196
C         4.36722354596657    0.27754184302868    0.95984469090639
C         4.32182357381371   -1.12787309853028    1.56076444958133
C         4.16846474042211   -1.88137270943027    0.22967036038037
O         3.63061058117984   -1.06936502425576   -0.84298522284976
H         1.45240529203438   -1.28458336348325    0.53369387676330
H         1.06434487480335    0.17423786957579   -0.44699037357237
H         1.46790855724080    0.23796072740848    1.34462020776511
H         2.44365971407873    2.13003673580941   -0.63197361569695
H         4.04993035446644    1.68071686050120   -1.16173569776940
H         2.26314415420860    2.56661581292623    1.92502900559784
H         3.32445308042199    4.69942624339245    2.10261895880431
H         3.25794345861103    3.68474427154115    4.37933440430934
H         4.62986484799891    4.79440015476980    4.14794760895118
H         6.04170946876064    3.00789870193373    4.06827150661997
H         4.82994251862193    1.81640893324446    3.96450238868269
H         6.00916212824788    4.41392816714130    1.64177437821633
H         7.30681744840209    1.70963667928222    0.78690516008919
H         6.55577322832769    2.24766466482939   -0.65747346087097
H         6.54559479868123   -0.31635368033484    0.59604644027976
H         5.63227750848752    0.03052443510638   -0.90370903366032
H         3.43071027740734   -1.21501757564969    2.18842306441136
H         5.11686481704607   -1.53410212799551    2.20116093782897
H         3.40437885618551   -2.65721094976528    0.37049543034134
H         5.13324352961639   -2.29751128515706   -0.06775460524279
