36
 energy: -47.845588096577 gnorm: 0.130843577588 xtb: 6.4.1 (79825abcba525fcdf90b791dcacef51065a7a4e7)
C         1.68932206245686   -0.11731451072123    0.21262643970972
C         3.14012599763890    0.14806778652778   -0.25179668911964
C         3.28580364510690    1.65634899856390   -0.33309577120810
C         4.11004279202868    1.71043094392159    1.02583583151271
N         3.35594700591390    2.24280633603158    2.15385572386033
C         3.95215022046540    3.58463433358742    2.42135635033808
C         4.09787578358226    3.74481250947181    3.97128557870011
N         5.15449586399420    2.92461319012537    4.58409288908915
C         5.29815737859672    3.55314498436536    1.73455327308523
C         5.32432511686141    2.48804086989299    0.94568059952243
C         6.42035422505476    1.77810489103283    0.28334057643122
C         5.78060138320568    0.41701760655890   -0.08410563250377
C         4.45133078615091    0.24406759330137    0.79812453999414
C         4.29475099751579   -1.11266355985215    1.48596188497426
C         3.92917631785654   -1.91622187621563    0.22749406572928
O         3.57923432013308   -1.06156453574419   -0.88889968470987
H         1.08976548521495    0.13235758385549   -0.66946022127891
H         1.49076945560251    0.56774725254144    1.03817765408509
H         1.49836490280938   -1.16341913724920    0.49380301186094
H         2.37437789162947    2.25784608987215   -0.41860002246587
H         4.00200712596233    2.00304461101663   -1.09176742374459
H         2.34540516613658    2.25048412317176    1.99266132640856
H         3.38231370149063    4.46092947192458    2.10154407078933
H         3.18595728298239    3.44973876709133    4.50277316451680
H         4.34015732629639    4.79684574903705    4.17581539668820
H         6.05072685583496    3.27624369908626    4.24365289016109
H         5.01501895497512    2.00059108856192    4.16909019502496
H         6.09682229373668    4.25591008780259    1.90718374907970
H         7.24724489608681    1.56068391658200    0.96985727976832
H         6.81829362409370    2.22190401862807   -0.63509605677993
H         6.49981654258323   -0.40523468073410    0.04311486023980
H         5.57403819313388    0.51681968143682   -1.15440709856371
H         3.54028721534497   -0.98973384772206    2.26782190250253
H         5.15863629689257   -1.56816166073014    1.98939403186962
H         3.12086541767318   -2.63852392550025    0.40212840791136
H         4.79672063284849   -2.54033849422109    0.00327019578931
