36
 energy: -47.847519971830 gnorm: 0.149702248953 xtb: 6.4.1 (79825abcba525fcdf90b791dcacef51065a7a4e7)
C         1.87755389128606    0.10199574023639    0.57325806149506
C         3.21053077617632    0.15890111454967   -0.20833201706396
C         3.55903667572724    1.60372397782889   -0.51455783458015
C         4.11757061892866    1.78711338960699    0.96307482526899
N         3.18785521836565    2.46600472278136    1.85708193357808
C         3.85500631201703    3.72076492027597    2.31315593596354
C         4.16024853938906    3.72088046783858    3.84808289305141
N         4.98505043023839    2.58006259888792    4.27580025858637
C         5.21078401851945    3.65420035450570    1.64842946846286
C         5.37248529534630    2.49975055542311    1.01712131943287
C         6.33402902617333    1.71830782918722    0.23688794457275
C         5.84684782179859    0.24881305210593    0.24681678757569
C         4.41126057844779    0.29302591899896    0.96259368676265
C         4.23506642173305   -1.09714619752002    1.57474886093629
C         3.91741286224376   -1.93084442603362    0.32289601405300
O         3.54967361958685   -1.10154310985636   -0.80682109801050
H         1.41818065089656   -0.88219985842754    0.43107378281706
H         1.18586999135659    0.79902339727485    0.09787044101342
H         1.99295257613158    0.33438274772983    1.64215431918572
H         2.70934969744543    2.24334298917436   -0.77671462630966
H         4.30002983851076    1.71121792436358   -1.31960574499847
H         2.26773836919649    2.54188734535168    1.41564768195588
H         3.24635358936408    4.59036376492785    2.05195403546954
H         3.22113841357567    3.55886432175581    4.38934609701744
H         4.77299351538167    4.60146710504040    4.08560656915276
H         5.90373672723234    2.72077390510088    3.85272908957768
H         4.60820633279996    1.67470730858885    3.98628650484501
H         5.85195636757808    4.50318886634034    1.82065676664451
H         7.38008746445242    1.83833703338055    0.54295980166879
H         6.36944564768287    2.08265224955325   -0.79502197290576
H         6.45707985113199   -0.35636792548002    0.93305811990953
H         5.93594410920521   -0.30681961467830   -0.69206990786161
H         3.37702996075590   -1.13554701178001    2.25145500867493
H         5.14657145424006   -1.34685994809340    2.13512539895705
H         3.01837185073430   -2.53931175150234    0.48744597034733
H         4.76239283043143   -2.50638032676343   -0.06076831490866
