36
 energy: -47.848056257280 gnorm: 0.134305521455 xtb: 6.4.1 (79825abcba525fcdf90b791dcacef51065a7a4e7)
C         1.70337095899462    0.07032018816525    0.34500219519510
C         3.16019755816341    0.17480607309077   -0.16262715396832
C         3.41574997527838    1.59772574981844   -0.62386051330186
C         4.07203698497090    1.95113101580561    0.78091063846905
N         3.21048009607011    2.60459020467488    1.75826596119241
C         4.03946279316844    3.66567790766030    2.40200324116076
C         4.14599327838536    3.39302331805163    3.93936599324257
N         4.70628097598041    2.06670610708514    4.24212998495763
C         5.39537492072578    3.50375830763306    1.75415333374788
C         5.37469578010615    2.57390448510722    0.80948639856958
C         6.35851564299821    1.84037683675182    0.01072572470120
C         5.81614940518932    0.39672469258861    0.14698373680449
C         4.41235855412466    0.47357031824106    0.92072007703463
C         4.38403324382810   -0.78119896696960    1.79428078432304
C         4.05208672377119   -1.77760508660249    0.67174866738366
O         3.62748599473835   -1.12629122862395   -0.55084612488025
H         1.45560726630839   -0.89844333221954    0.79220628873946
H         1.10373448597862    0.34196947033293   -0.52500373624546
H         1.62745548252373    0.92339951853361    1.03518497851432
H         2.54114044424765    2.19626447755389   -0.90065668736232
H         4.18710141138368    1.62064851659530   -1.40694378216468
H         2.36219278132882    2.97271858640860    1.31994250624713
H         3.59877341969751    4.66317727316453    2.32667367792805
H         3.11851659103545    3.41535985695149    4.32007011832360
H         4.83089827861491    4.11346261949307    4.40753162511598
H         5.55555361214103    1.95817893335847    3.68559495882013
H         4.19176801747373    1.19537077133143    4.09533410604603
H         6.26003316618105    4.13690061245706    1.86835726031863
H         7.36038176231131    1.89326863442578    0.45320951474077
H         6.31338231236500    2.14862908712514   -1.03893266353171
H         6.59443518614764   -0.22247982944373    0.61646352202032
H         5.66338968931030   -0.10169132625361   -0.81552336578892
H         3.55920911040689   -0.77180494160465    2.51206155576592
H         5.32001180124337   -0.96392815345762    2.33996783947214
H         3.28676673970555   -2.49318965113406    1.00008987536311
H         4.91359971473700   -2.39957536587026    0.41999610055973
