36
 energy: -47.836522768766 gnorm: 0.131535182703 xtb: 6.4.1 (79825abcba525fcdf90b791dcacef51065a7a4e7)
C         1.68016515013620   -0.12350082043984    0.32496448638835
C         3.11513352800571    0.13457378472684   -0.19002273362507
C         3.41300876761049    1.60500867103374   -0.41769627415012
C         4.13784658289996    1.66766412351466    0.99640213568541
N         3.44391152264444    2.17357864716337    2.17411908058414
C         4.07521841979144    3.50171808641145    2.42909815209635
C         3.97957156845622    3.97367717652040    3.91815146425444
N         4.88382535239678    3.34842946429995    4.89595311168347
C         5.41465328357506    3.42292463907573    1.73330294284067
C         5.43119779911325    2.30995863406226    1.01324441001033
C         6.36624261709488    1.67066967726336    0.08535232327072
C         5.81969288579958    0.22218878766936    0.07861625578067
C         4.42299129418958    0.17748208564780    0.86755723443574
C         4.22768108960448   -1.22883904249732    1.43542286310349
C         3.94694835040921   -1.88461295792582    0.07371742579958
O         3.62287005635986   -0.94887299755451   -0.98392028808710
H         1.31357406062352   -1.15570204077127    0.31770385130444
H         1.07348637470660    0.39271443650095   -0.42050866690219
H         1.53138906770026    0.32808326473658    1.31683003338851
H         2.52915685672315    2.19119706580336   -0.69154935956834
H         4.14681307777604    1.69352899716736   -1.23159017196743
H         2.44468506830088    2.30353262304807    1.99552519743494
H         3.52637057647236    4.31212358887259    1.94237891182093
H         2.94761728265482    3.81374205096615    4.25076835291404
H         4.15557346312889    5.05684395603438    3.97364703545552
H         5.76863449232352    3.85821416854247    4.89834734507159
H         5.06569634180302    2.37465841481400    4.64259414243630
H         6.10060389889688    4.25399957910349    1.75151756107669
H         7.41673154278044    1.61703990601204    0.39506511962589
H         6.48849239323561    2.25277951574298   -0.83390950588812
H         6.56432852479402   -0.38785274310369    0.61051977736806
H         5.87020054000744   -0.19723898095410   -0.93118733220220
H         3.36998242577086   -1.20472178583227    2.11321611481446
H         5.07404814435431   -1.61535509639023    2.01979288015541
H         3.10971094627970   -2.59497636379292    0.07483773549048
H         4.82604300474118   -2.34864852788423   -0.37827217064471
