36
 energy: -47.844410981586 gnorm: 0.127827630432 xtb: 6.4.1 (79825abcba525fcdf90b791dcacef51065a7a4e7)
C         1.74957527437662   -0.01096179576510    0.34865724478454
C         3.15104735920817    0.14453815673795   -0.28588544185761
C         3.44127020978127    1.62187102056147   -0.47562747143218
C         4.14946600468187    1.75586008377750    0.94193938043260
N         3.42683195611631    2.33671925572350    2.06662401809115
C         4.07505162253699    3.61747285557648    2.47527879025417
C         4.04180043243476    3.93471410543332    4.00740997318632
N         4.85510109538761    2.92796316287920    4.70719586135190
C         5.43493099534675    3.42947607498487    1.84297299186916
C         5.41797064069491    2.44602694737781    0.95415817010301
C         6.32275064972458    1.73659348809387    0.04748264755361
C         5.83596047458693    0.27131542019230    0.16086040285255
C         4.38700210742521    0.25461207184013    0.85038395355741
C         4.22357917939600   -1.14479813598789    1.44477512817732
C         4.01363158735658   -1.92221149103194    0.13533152491522
O         3.55009752643302   -1.06960806198793   -0.94051100290898
H         1.87012935109583   -0.73395422263672    1.16267799792518
H         1.03055110593726   -0.49860961510418   -0.31124533496071
H         1.29815089269153    0.92330880691565    0.71364253181037
H         2.55671663343255    2.26786663759730   -0.46780067021835
H         4.10016461689204    1.82352181956338   -1.33232057474879
H         2.40686512532205    2.37356308327521    1.99214185317407
H         3.58849485369464    4.48955329285006    2.03072851858930
H         3.01614502363669    3.87175750692079    4.38847475759457
H         4.41511766168610    4.95392184387791    4.17816290998286
H         5.72146978768863    2.94644948698558    4.16697651441715
H         4.36946837398161    2.03174854653055    4.62683349369714
H         6.17040042657774    4.20954188623267    1.95309912082318
H         7.38018952743440    1.86400944120186    0.30808472181525
H         6.24115880023632    2.13582850684866   -0.96878180796802
H         6.41365123228309   -0.45389633526608    0.75238015192591
H         5.81213191203576   -0.08764080191887   -0.87294647318555
H         3.35167909758163   -1.32714724326370    2.07894502402730
H         5.13589488888909   -1.50753126640882    1.93805493912647
H         3.26941661261480   -2.72221544182651    0.24359816323914
H         4.98518246491132   -2.29074844832178   -0.20037733418611
