36
 energy: -47.853317530907 gnorm: 0.128098134859 xtb: 6.4.1 (79825abcba525fcdf90b791dcacef51065a7a4e7)
C         1.80460714828321    0.16006087956643    0.55942114924478
C         3.19316910512794    0.15440580823896   -0.12088199924545
C         3.48882481457448    1.54249703009849   -0.65803579006459
C         4.06999093306021    1.96632455432288    0.76027529474621
N         3.22122005127254    2.65832361767809    1.72216831733651
C         4.04721176914631    3.69887046953934    2.40225446653816
C         4.25994219350328    3.26396775893370    3.89046782843067
N         4.42860725407288    1.81719065663295    4.09805837323943
C         5.34635387607606    3.70487240612381    1.62984324512430
C         5.33887348828463    2.65304989022873    0.82295719823918
C         6.33747578874357    1.90470483558051    0.05695696820404
C         5.86020189864748    0.44128033515338    0.22265968124952
C         4.43569643554774    0.50164703584913    0.95909851103433
C         4.27394228365685   -0.78239505098469    1.77360964979179
C         4.08320708963501   -1.81020362576387    0.64652415966539
O         3.57448031978209   -1.16314313150532   -0.54584464782123
H         1.63364570727766   -0.83806293958626    0.97703598244708
H         1.04706556056310    0.21445557086357   -0.22380265331080
H         1.75181325222334    1.02272393860569    1.23977770376691
H         2.64473483174121    2.10404155735085   -1.07274832494481
H         4.29965641255291    1.52491051343780   -1.40030985867570
H         2.51120430191123    3.17542568030291    1.19707739278618
H         3.47835260583684    4.63191274089703    2.37545708307367
H         3.42019043120945    3.47873519845040    4.56116511221958
H         5.17596232555145    3.75965450909845    4.24047996495371
H         5.28689846248369    1.55243825628464    3.61224383375111
H         3.69592876681486    1.27511832448840    3.63455248223097
H         6.11825118860944    4.41279036162516    1.88395432985923
H         7.33587900780577    2.06335782206649    0.48162801154812
H         6.35304785571264    2.25233119550825   -0.98119172359099
H         6.69391234584976   -0.06812413314626    0.72762334455979
H         5.78640155271854   -0.14742042460361   -0.69720931167755
H         3.49748804122017   -0.76738428668349    2.54336669300403
H         5.19551336538454   -1.06058838843803    2.30326563511806
H         3.44811924970163   -2.65719650612389    0.93781510683794
H         4.98764110519927   -2.31936880753313    0.30714093804359
