36
 energy: -47.846131691627 gnorm: 0.138054661905 xtb: 6.4.1 (79825abcba525fcdf90b791dcacef51065a7a4e7)
C         1.74618973879470    0.03607541454419    0.49211657928427
C         3.15873116906304    0.12292320247405   -0.13088648690312
C         3.44866843931152    1.55686117657153   -0.53400183569506
C         4.07621915580945    1.78711433403394    0.90896514683489
N         3.24356732841485    2.49507842182369    1.87332538679564
C         3.94585631497737    3.76219205818508    2.23211563150533
C         4.17903978824675    3.76477906938778    3.77962729937096
N         4.81755182739466    2.54233669571869    4.29211411150683
C         5.31255943724756    3.63619144008775    1.59912928314272
C         5.33813869581800    2.48885432730275    0.93549169021560
C         6.46903994581793    1.69050280915936    0.45833301566480
C         5.87813913957883    0.28955388690776    0.16672137379712
C         4.46033973993399    0.31370990433014    0.91802918663406
C         4.29093918044848   -1.05775817465349    1.57280824135786
C         3.97664383161497   -1.89338070922501    0.32139085215234
O         3.43799128892284   -1.12557799863480   -0.78294877521415
H         1.54420463572840   -0.98823649273616    0.82358038561945
H         0.95439697106542    0.42760433863397   -0.14822464034264
H         1.68759228462467    0.71650284062026    1.35434893999371
H         2.56638553670239    2.13037630119196   -0.83808062723562
H         4.13452700839886    1.61325141364013   -1.39140846162922
H         2.24981551389726    2.69391604262333    1.73134535423288
H         3.35330286392403    4.65512402508408    2.01661707241793
H         3.22064313303685    3.80450623589617    4.30975984682989
H         4.73117629022388    4.68500242555371    4.01551071174601
H         5.80989836279659    2.52556727464312    4.05182150118966
H         4.45217449906299    1.63266899189349    4.00142189307668
H         6.06700253290732    4.30894506817839    1.97297935850944
H         7.25731962115231    1.68326762822811    1.22049313200757
H         6.92785433798534    2.01538149740247   -0.48123202356395
H         6.55725029071671   -0.45774193968770    0.60250951738350
H         5.78776758984735    0.25760935875337   -0.92368522785475
H         3.46490411665354   -1.11887540266491    2.28664517040609
H         5.21686432577405   -1.44707117762265    2.01813762464519
H         3.32291291901893   -2.74786607113694    0.54065000403979
H         4.93911050586871   -2.19122143561819   -0.09977400517844
