36
 energy: -47.845842469195 gnorm: 0.141326791731 xtb: 6.4.1 (79825abcba525fcdf90b791dcacef51065a7a4e7)
C         1.81953525976171   -0.02843372883398    0.62803048552311
C         3.15059997514087    0.09838398757564   -0.14858564598234
C         3.39460128829935    1.55813884778561   -0.48373159016890
C         4.15846549673108    1.77937132824031    0.89342409773319
N         3.33927365214955    2.47271064967313    1.87968885234199
C         4.00233221916619    3.76585518169595    2.21975912413993
C         3.94832258317028    3.84623404978740    3.78174369668341
N         4.69856324995665    2.72107861265094    4.36128653622181
C         5.37827356739701    3.55927652190598    1.62938976101295
C         5.44299426519324    2.43863457998816    0.92410649387151
C         6.52242848377359    1.69285513283269    0.27401574374719
C         5.84595565061016    0.31524760124059    0.07044513557699
C         4.46403351385900    0.28768745006655    0.88575716815590
C         4.40044299760245   -1.06738303003874    1.59151708461184
C         3.96882131441062   -1.91786698707139    0.38591689336680
O         3.48134864290978   -1.16268796339483   -0.75044071152114
H         1.84156669875899    0.48017536587006    1.59793384035402
H         1.38711355809213   -1.02542047863214    0.72444857739711
H         1.07752683237646    0.52376398072656    0.03274822914812
H         2.46896333841410    2.12612066101025   -0.62655197241307
H         4.13772879862327    1.87242623393272   -1.23053335642899
H         2.39442775049279    2.55516861728034    1.49536569309499
H         3.54898119484908    4.63164036460979    1.73009026726916
H         2.88375923235957    3.81804337246722    4.04068978458478
H         4.30920088153623    4.80664172842464    4.17505105704765
H         5.65997769047009    2.78935996338722    4.02395386734275
H         4.25723884778432    1.86101140353619    4.02809731505845
H         6.29139154518241    4.06573245403902    1.89634230482269
H         7.35544275130508    1.51452139148366    0.96438488390802
H         6.82551133318976    2.27929513511064   -0.59952199373767
H         6.38968554625278   -0.51061329763951    0.55196967694680
H         5.66750789896591    0.09402028017956   -0.98662103959198
H         3.63484036638518   -1.11199444988464    2.37093663219396
H         5.33111379516298   -1.31238726855322    2.12165389127107
H         3.19440214479620   -2.68367300666369    0.52520078332398
H         4.84734040851290   -2.46495008679845    0.03758470287938
