36
 energy: -47.847306870303 gnorm: 0.142101909407 xtb: 6.4.1 (79825abcba525fcdf90b791dcacef51065a7a4e7)
C         1.81670229949381    0.10684245830099    0.44877696760827
C         3.23976204493083    0.07094690408273   -0.15501196013134
C         3.44728648825300    1.48195884661295   -0.67339652813843
C         4.03202494702642    1.88124647276494    0.75055579329644
N         3.16647998168274    2.64083926410483    1.64406756219619
C         4.01058565231219    3.71202377738554    2.25034015681148
C         4.01784697440604    3.42321821767207    3.78842731995880
N         4.88126669656253    2.28575478485906    4.14253042075974
C         5.38844200917208    3.53593330304673    1.65458085177872
C         5.28864509357037    2.59258572717871    0.72852076923948
C         6.28751211607746    1.82107582322246   -0.01378648764858
C         5.86416838486291    0.37147810456692    0.32724930999419
C         4.40889204312533    0.42739431029713    1.00122709420368
C         4.22976631275229   -0.78963712356075    1.90958000998658
C         4.05099489288499   -1.83240963858506    0.79434090765828
O         3.67416304913374   -1.25822094363816   -0.48140932210209
H         1.58729997168817   -0.78274508220855    1.04534187468392
H         1.05485463957919    0.18550171127941   -0.32818404575117
H         1.87560516615051    0.92622321826523    1.18021760117140
H         2.53314474854870    2.00185396928647   -0.97976313367059
H         4.22420807577970    1.57148677592557   -1.44612253867022
H         2.39068359372349    3.10401610531259    1.16360476772453
H         3.58646261604198    4.70298382959438    2.06866882539184
H         3.00910056107126    3.13352343150402    4.10410199223830
H         4.42822901938315    4.37224961456870    4.16022389394781
H         5.87969046411706    2.37102279259822    3.94592742007993
H         4.61512598495484    1.41732229008965    3.67296465682059
H         6.30772753225572    4.02587650891701    1.93101413830853
H         7.35776163085625    2.00463029745350    0.13852530544651
H         6.09068168796903    2.06810194149100   -1.06215430271971
H         6.45292276536572   -0.04571703457859    1.15723169473311
H         5.84679932231248   -0.26442131917972   -0.56353922339964
H         3.37578668644592   -0.65697140070538    2.57946875481689
H         5.13497986418863   -0.99202687440539    2.49851717717280
H         3.22688749734050   -2.52847693827104    0.99908760213196
H         4.96348273293909   -2.41304546028620    0.64381184281992
