36
 energy: -47.836326447948 gnorm: 0.145417716284 xtb: 6.4.1 (79825abcba525fcdf90b791dcacef51065a7a4e7)
C         1.73849085740831   -0.11175461074490    0.35148422039850
C         3.17311210642702    0.16282359082377   -0.15587890221888
C         3.42684562501288    1.63596302394367   -0.41707469317693
C         4.14762445044571    1.74778903191950    0.99606471292761
N         3.37484604747740    2.37161844283662    2.06291208024139
C         3.98091510483558    3.71864480333251    2.27672863533340
C         4.06467657991352    3.96214477526911    3.82038189428833
N         4.94948720543288    2.92086410483732    4.36586373422372
C         5.35160875464504    3.55122387305489    1.66224146755217
C         5.41584158901208    2.43685105527132    0.94704987444577
C         6.32233084719105    1.63941203700836    0.11858656205026
C         5.83839578159736    0.20251781583943    0.43163745794520
C         4.35396553599475    0.23979967565172    1.04014300054861
C         4.14979315886857   -1.18149882255324    1.56605279299330
C         4.00994903577753   -1.92330861129579    0.22692847497353
O         3.60666754320455   -1.02516466250509   -0.83605556324921
H         1.55668264368310    0.44110436134379    1.27947875234511
H         1.75958675612194   -1.18217196512309    0.56131561099076
H         1.06346642860855    0.16016392730251   -0.47329582127482
H         2.51019119786968    2.22165686063909   -0.54558160081903
H         4.14338780681639    1.95540345403233   -1.18730392619287
H         2.37056519684500    2.49005006607453    1.90596839744510
H         3.35875327505628    4.53302238550759    1.89647800868894
H         3.05027307399925    4.10471056148245    4.21000150764373
H         4.53930259769382    4.93579133849673    4.00490626581387
H         5.75674187732392    3.04261970634943    3.75243984689097
H         4.55353026962860    1.98382654995814    4.26253602833344
H         6.07664601193305    4.34340194236415    1.75345885848111
H         7.35255505625998    1.72263990031377    0.48469644594891
H         6.35716688575287    1.91674232940396   -0.94005107516359
H         6.66117269827100   -0.15977268798244    1.06514993210099
H         5.90690622147670   -0.42069466703480   -0.46562869707027
H         3.21102797549086   -1.26085741808390    2.12107941749412
H         5.02201792883880   -1.57114222088085    2.10884394284208
H         3.31885860860360   -2.76716782367873    0.10091430206151
H         5.00158977980493   -2.33326497960539    0.02440576364853
