36
 energy: -47.845133055424 gnorm: 0.132987226509 xtb: 6.4.1 (79825abcba525fcdf90b791dcacef51065a7a4e7)
C         1.83064201715985   -0.09454947631568    0.46591143377254
C         3.22974951782349    0.06065102696278   -0.17390076989459
C         3.36488312993746    1.52232042079926   -0.55861522539485
C         4.00199925371815    1.86410428406052    0.85780878150809
N         3.21174711141150    2.70278413829246    1.75035040158406
C         4.07274397230812    3.81373507835229    2.25233610650990
C         4.27314803941475    3.73693791833495    3.80253416000921
N         4.73698411601029    2.40667818863342    4.22676388719139
C         5.37094879735607    3.61571111348019    1.50408745311324
C         5.28651342458485    2.51770036764693    0.76605312350206
C         6.30893855074456    1.74045297030881    0.06283443413545
C         5.86462279146353    0.29242589193351    0.38324055818497
C         4.38690389138739    0.39775941321058    1.00004991904926
C         4.19940243774673   -0.90477022892630    1.77890587166514
C         4.11399314741306   -1.87054613613686    0.58597912732587
O         3.75619370501554   -1.19049194850915   -0.64232842249703
H         1.60849489963622   -1.13214705789436    0.73779934698675
H         1.02965200778071    0.07866851832219   -0.25428166106516
H         1.85364442296161    0.44826324301361    1.42230310476933
H         2.39703562924073    1.96495009278402   -0.81776155391384
H         4.10945665865939    1.68927310447032   -1.35011065504263
H         2.36888051788233    3.02915924045385    1.27046230419514
H         3.54469268385129    4.74465600083608    2.02999674661320
H         3.30417192757044    3.94163818822643    4.27192313609480
H         4.94540750395573    4.50746883356006    4.20459889630649
H         5.53177028568687    2.07397575362445    3.67867864466405
H         3.94056454914724    1.77351873953484    4.12516234127396
H         6.22997438261089    4.22205282467074    1.74066826909607
H         7.28851186294889    1.96782935440935    0.49994007482612
H         6.36727201199322    2.05796929482523   -0.98340638906920
H         6.55440185818879   -0.15446074835247    1.11402882056623
H         5.76455730733909   -0.32553252652150   -0.51469502930648
H         3.26411473883252   -1.04758229685492    2.32706099718250
H         5.02726010587820   -1.25209814442424    2.41233720598880
H         3.21621779661837   -2.43141200209241    0.87754869339036
H         4.94778839583256   -2.53358256467983    0.34598076164122
