36
 energy: -47.840127106352 gnorm: 0.144978339965 xtb: 6.4.1 (79825abcba525fcdf90b791dcacef51065a7a4e7)
C         1.73859198752990   -0.07602387525120    0.51370270042756
C         3.05057221587956    0.24725088256022   -0.23806187492628
C         3.36393926835406    1.72429465386753   -0.38934481790199
C         4.17180050547044    1.76557081880689    0.97983254889271
N         3.41293271368915    2.31513510279769    2.09635020255648
C         3.99644793013470    3.65148969404067    2.41444395975991
C         4.14893686953298    3.81098124880999    3.96379323487228
N         4.94969381030632    2.79773935405051    4.66865840401131
C         5.37345308928049    3.55757561276077    1.79843887678219
C         5.44102578551421    2.44768882053158    1.07661002222182
C         6.50377970622253    1.63696719207862    0.47889120764209
C         5.75672521567796    0.35658627195981    0.03235643351424
C         4.36043820993241    0.26333713429100    0.81777942678960
C         4.24103910823393   -1.20595053158873    1.22434369334420
C         3.98840562756713   -1.83297401840455   -0.15627571380451
O         3.36806249835912   -0.88611039166215   -1.06063032068355
H         1.88144815641474   -0.84265234559985    1.28295820239684
H         0.88041676552236   -0.25771549015087   -0.13498136134915
H         1.33006845212390    0.81111438902619    1.01962167808049
H         2.58286090944934    2.47524585679873   -0.54995469179835
H         4.05945299825480    1.74785061501267   -1.24048154405238
H         2.41194802462745    2.21980892084362    1.90613988633144
H         3.37328958244028    4.45105310137596    2.00547115070750
H         3.16821455244938    3.77152821047782    4.45141000491336
H         4.55328427786111    4.81417326266725    4.15722458850658
H         5.88560095142039    2.68666775944586    4.27557530324704
H         4.46799125804865    1.89619835381242    4.64249801100108
H         6.11375608897175    4.30401358254187    2.03577315154968
H         7.15643576888576    1.27100598035235    1.28041332221736
H         7.21583623985392    2.03589355626257   -0.25095298577959
H         6.34706118654988   -0.56207902688984    0.16316862471867
H         5.60319424459199    0.44389634105096   -1.04791169174240
H         3.41413810937195   -1.46552107968517    1.89104473963240
H         5.19968585726581   -1.53370183733665    1.64954452582895
H         3.36399395565421   -2.73612007211882   -0.15167263253806
H         4.89678694835813   -2.10113878581008   -0.69974795009112
