36
 energy: -47.834914495884 gnorm: 0.141435132982 xtb: 6.4.1 (79825abcba525fcdf90b791dcacef51065a7a4e7)
C         1.80199861551157    0.14390529320358    0.60589458196874
C         3.14015633307603    0.17768610217481   -0.16814765814012
C         3.51526193291191    1.55732562213707   -0.67670862809798
C         4.06539000130018    1.79240985893956    0.79675138254746
N         3.25487347917439    2.36791507082998    1.86275762403828
C         3.92473655398942    3.62461704885329    2.30941263149112
C         4.19924021010612    3.63878283943136    3.85006851809394
N         4.77177730417379    2.44462976097424    4.49108753198579
C         5.23226130628437    3.61078631190595    1.55138038989190
C         5.33708894677777    2.47148839199804    0.88170676513347
C         6.43939636140699    1.74443482688717    0.24901853998491
C         5.85572566562399    0.31819388763978    0.10061308674657
C         4.45109301638189    0.32155836881864    0.87662707896818
C         4.30986145646183   -0.98589425492152    1.65699741908332
C         4.04988631505356   -1.81685554275960    0.39010820908076
O         3.51350137916890   -1.08554263419060   -0.73980602725364
H         1.32194109608256   -0.83050207406285    0.46462826668623
H         1.29751774718266    1.04125310018399    0.24460034997020
H         1.92883041269799    0.45101767608922    1.65444379787683
H         2.70048244418185    2.26160561067277   -0.87653518247469
H         4.23694740732602    1.73249966189214   -1.48739477154946
H         2.28797949056383    2.51905659461964    1.56357612179777
H         3.36036541268148    4.53162583867277    2.07766510528935
H         3.22175879623453    3.73721368017996    4.33585071977219
H         4.82649763004077    4.53546702218839    3.94912561951777
H         5.51430063227707    2.01164983817439    3.93976105426798
H         4.04190083778615    1.72854474848836    4.49178128142595
H         5.99212232450783    4.32107829632465    1.83358972895900
H         7.29478690876510    1.74363054629656    0.93504443302001
H         6.76484470271614    2.23773221193560   -0.67270823722791
H         6.50729529636822   -0.49220787333290    0.45874750473713
H         5.65649333275306    0.02020625258065   -0.93364211539536
H         3.46455295182372   -0.91835099671853    2.34730443557230
H         5.21718892721575   -1.21131087967960    2.23420135601325
H         3.30520001734853   -2.62085930954087    0.45796215798747
H         4.99787686235609   -2.27608232954075    0.10226154808057
