36
 energy: -47.844095619867 gnorm: 0.142372125883 xtb: 6.4.1 (79825abcba525fcdf90b791dcacef51065a7a4e7)
C         1.79144262104222   -0.07181676159096    0.45408095841042
C         3.16314867022238    0.15726241918879   -0.22185831084375
C         3.34031522667609    1.65373027438144   -0.40057512085727
C         4.08086652076621    1.71284986873124    1.00551121913223
N         3.35681292417111    2.24193316986831    2.15456740817888
C         3.87352076170146    3.62271533458150    2.38688369380305
C         4.04294669988558    3.87585696341604    3.92193671313871
N         5.23814103034758    3.24274791389824    4.50106464529934
C         5.20809231635020    3.53181394957864    1.68326375211260
C         5.34597727252999    2.40919011942554    0.99177615381721
C         6.31897253879587    1.69589483825490    0.16203326817463
C         5.82401002731444    0.23125007077071    0.24380626629985
C         4.37825775906620    0.22092564529297    0.94015090879182
C         4.24164836532815   -1.23037174488965    1.40213643186443
C         4.16316233084646   -1.90913033630251    0.02510382879238
O         3.45905121489777   -1.06357783982075   -0.91750006009695
H         1.71213239481540   -1.05919196474887    0.92171459388261
H         0.96642390589255    0.14712303476082   -0.22538725160992
H         1.55842628528197    0.60490932319287    1.28930846153896
H         2.40399113014106    2.20227294263754   -0.54958774738947
H         3.94987538410359    2.00021533249059   -1.24740005978042
H         2.35264892578373    2.18423329094046    1.96598645382957
H         3.23143235484060    4.36875125628901    1.91144746962867
H         3.21959402320911    3.42516221095584    4.48771717339675
H         4.14272569776500    4.96136109822941    4.05989197853531
H         6.03842896783311    3.62459256203173    3.99459916751875
H         5.10713520833952    2.25917817332990    4.25423286371978
H         6.02959991778948    4.20099976382288    1.88039650419835
H         7.33250128841503    1.85923999695773    0.54726446633554
H         6.27189293333627    2.09969324673993   -0.85461299715737
H         6.40153593531057   -0.37522480419941    0.95669220601757
H         5.77930647616255   -0.24895189694462   -0.73883389769966
H         3.41679289898455   -1.47399750020544    2.07733445022133
H         5.15360545008722   -1.57294121350696    1.91027094652310
H         3.63609958236823   -2.87112693267965    0.07359427752363
H         5.11319585371076   -2.15781098935791   -0.45241609445394
