36
 energy: -47.846641628361 gnorm: 0.141405337734 xtb: 6.4.1 (79825abcba525fcdf90b791dcacef51065a7a4e7)
C         1.81314808532185   -0.00224090634969    0.45142117835184
C         3.19486574716745    0.09919891580076   -0.23524827193387
C         3.59886861327296    1.53090605645696   -0.53481475757458
C         4.14852037281564    1.71104212794955    0.94654410629682
N         3.35032939559993    2.31615551966332    2.00543119633363
C         3.84359027330037    3.71023430086325    2.20731060980599
C         3.99883798405121    3.88871209031495    3.75431333550692
N         4.92718364915770    3.04374770577470    4.52172146514783
C         5.24830625176362    3.59407193227860    1.66168743677135
C         5.40388424280242    2.41192365691667    1.08222856713176
C         6.41134566363367    1.71939704481327    0.27636778788035
C         5.89406817489286    0.26597421734636    0.14657909307471
C         4.46049211094286    0.22281891547576    0.86643977061875
C         4.26539560022163   -1.12844921821567    1.55518405001215
C         3.85738200058073   -1.96928703074987    0.33468875971809
O         3.57571933470779   -1.15199242251058   -0.82803616349870
H         1.68185887043799   -0.29765743782211    1.49802202888938
H         1.21290460690098   -0.60678977376377   -0.23011825401390
H         1.27485710736673    0.95677438756966    0.43161512694235
H         2.76360627680798    2.15696943887441   -0.86676070730216
H         4.42615543579292    1.68840945860323   -1.24158003381709
H         2.33084846551261    2.35171816720235    1.92399821032278
H         3.32368206552802    4.55366431080554    1.74556608799556
H         3.01622593263463    3.71490254617626    4.20753151404246
H         4.27201840951539    4.93415930131332    3.95361039078876
H         5.89083821357839    3.07409314371759    4.18523604911876
H         4.58485212175572    2.08557159142917    4.42069894792112
H         5.99017760279930    4.34676191757219    1.87294654872806
H         7.42515530173068    1.74928829770166    0.69304726103162
H         6.40871266608199    2.17000793296095   -0.72152106930921
H         6.58575074686184   -0.42214652933395    0.65414128694799
H         5.93084980910170   -0.04855811299076   -0.90122363881804
H         3.49211662419050   -1.15268675748451    2.32789652930622
H         5.15370952303194   -1.55814163888195    2.03838489373437
H         2.97433766679695   -2.54040948556826    0.65034009189793
H         4.62359190876338   -2.64967511400418   -0.04270423442087
