36
 energy: -47.850565277095 gnorm: 0.129712163598 xtb: 6.4.1 (79825abcba525fcdf90b791dcacef51065a7a4e7)
C         1.80170489944793    0.07327166276223    0.48577684810221
C         3.19316977155092    0.12391507309257   -0.18668828063809
C         3.52227563625639    1.56886098850948   -0.51313014552997
C         4.14960949130396    1.71118616461630    0.94123765471359
N         3.38567917509175    2.34439137865768    2.00893340869462
C         3.97173789245783    3.68836701195556    2.28782727624289
C         3.99122936766406    3.88804964884104    3.83989700220630
N         4.82645544409842    2.90125251164224    4.54227474718824
C         5.35536833140388    3.51944185583857    1.70348468621091
C         5.37516952765864    2.47335238012705    0.88938635879113
C         6.40722691843331    1.75045214939128    0.14356082014470
C         5.91914400388970    0.28148823532022    0.11565101658979
C         4.50140267232598    0.23162477917254    0.86580102926068
C         4.27173127983718   -1.12254240419997    1.53799062816213
C         3.89057734356881   -1.99726994268231    0.33272493117520
O         3.50575120604672   -1.14766283032696   -0.77601766428090
H         1.64213991988511    1.00795786565004    1.03421264839807
H         1.76383193287005   -0.71290612163848    1.24126191063859
H         1.04547166777280   -0.05387331188651   -0.30276942889326
H         2.64597252439780    2.21052644013700   -0.65513322354268
H         4.21079769708311    1.76691353084583   -1.34706087258150
H         2.41606981200574    2.41221913351278    1.68878593385487
H         3.37094988955218    4.47361694029278    1.82164814945683
H         2.95275560233257    3.79535741238624    4.17771838161515
H         4.30031640162476    4.93010247062874    4.00082503057254
H         5.75909623227269    2.85490489756931    4.12898737436681
H         4.26688659427292    2.09005735119491    4.26961561986482
H         6.12271751121704    4.21097308830649    2.01090196005226
H         7.36919974486014    1.80854570573052    0.66658910340588
H         6.54996908315008    2.16948397570318   -0.85787624473648
H         6.58739681835786   -0.40240996981073    0.65904376316978
H         5.92157156125121   -0.17917209342837   -0.87730423625311
H         3.46722534704432   -1.13751769373221    2.27838124515352
H         5.23243796590903   -1.46429808773897    1.94721659736267
H         2.99041433404217   -2.55675813340883    0.61954092642659
H         4.62033078461891   -2.74273757145052    0.00997279392888
