36
 energy: -47.847527174409 gnorm: 0.135068496350 xtb: 6.4.1 (79825abcba525fcdf90b791dcacef51065a7a4e7)
C         1.74238496815508   -0.11706424790535    0.52834964971834
C         3.09919043805359    0.10450726998747   -0.17941693935978
C         3.33886010378620    1.53853508726178   -0.61400444957424
C         4.03251456115951    1.81956359746594    0.78915497083031
N         3.24478837468417    2.47100074352611    1.82820725881569
C         3.99226890581278    3.64372608784130    2.36996848903067
C         4.04141596102194    3.56671100328698    3.93228303739655
N         5.04487131761906    2.67056567659767    4.52785552429292
C         5.33389036923623    3.52375938442894    1.68434103483021
C         5.29623794783700    2.51779285537529    0.82174900417706
C         6.37921796964764    1.80303077953148    0.14332996943241
C         5.76448318568838    0.39317027964087   -0.03345631526713
C         4.41744792308508    0.34713725999135    0.83750800245771
C         4.25723237703390   -0.92891847259737    1.66477414347447
C         4.12892070894111   -1.86479172483108    0.45202134469584
O         3.57697370325664   -1.15264307015330   -0.68262940845090
H         1.64778235288158   -1.11701110400805    0.96542828225537
H         0.92305682842178    0.07174761160276   -0.16686184716370
H         1.76744001859456    0.55870590856775    1.39585567974906
H         2.52106605395189    2.23017848227883   -0.84345781773253
H         4.08638580862300    1.57878182502468   -1.41918356121110
H         2.30304435152270    2.70423281701341    1.50269487162539
H         3.45307708567594    4.56702426844906    2.14263765441201
H         3.06826423282414    3.20993991827258    4.28841925300383
H         4.22651604214679    4.59199498170270    4.28133522959991
H         6.00349277940993    2.98712227422107    4.37419939140587
H         4.97940308488012    1.70784965179943    4.18964013412644
H         6.09944337120148    4.28037052066991    1.73923901142431
H         7.36309304097858    1.89723708891123    0.61813537451052
H         6.55695619025274    2.17137435050444   -0.87233303336473
H         6.41832696171114   -0.35655055552095    0.43554394463954
H         5.63680238294438    0.14864262173256   -1.09273805282613
H         3.40196432061779   -0.88733241220758    2.34478845957326
H         5.14449820059520   -1.00148556781167    2.30875670932152
H         3.54992747133382   -2.76819648941067    0.68485293360875
H         5.10892145626529   -2.18058053672525    0.08828109236193
