36
 energy: -47.832208444685 gnorm: 0.137285396818 xtb: 6.4.1 (79825abcba525fcdf90b791dcacef51065a7a4e7)
C         1.97097818920527   -0.61242606863179    0.65237637206169
C         3.25647257914086   -0.11855233083624   -0.05086011099926
C         3.09474487738674    1.38417991728621   -0.18644645397505
C         4.07089082094309    1.58005407241674    1.05361908109236
N         3.22909248161693    2.00383848654489    2.16550720362462
C         3.67722758727325    3.38659697873846    2.50413842069014
C         4.26999456285866    3.28343589808952    3.94883862692899
N         4.28862141057306    4.54418961328356    4.70703307535412
C         4.89118714886582    3.62084282024552    1.63473841751012
C         5.13780820347489    2.54191562349106    0.90498108761355
C         6.24865322136098    1.99862957410936    0.12085941771807
C         5.83274065906704    0.53708919366586   -0.17540981096004
C         4.64662517025487    0.18567516349786    0.84676449072282
C         4.82786268798778   -1.28354220698378    1.23005307036607
C         4.56329588910120   -1.93474729469679   -0.13707106691334
O         3.75664989487966   -1.08417157174556   -0.98858545508234
H         1.14734897485816   -0.37067340965367   -0.02811733690122
H         1.79189900366540   -0.06383708786527    1.57825343587757
H         2.03204449159662   -1.68236524572905    0.90008759727180
H         2.04035429012896    1.62213121853946   -0.00911543469384
H         3.44684381620813    1.88129172490199   -1.10167000032282
H         2.22895277286088    1.94233300341092    1.95772119886991
H         2.79880219821656    4.03714059970342    2.49717067090646
H         5.28254979924541    2.87859897343577    3.83937689535791
H         3.55413018053698    2.62422448992855    4.45902019220395
H         4.07446325312373    5.42154762196308    4.23042778088214
H         5.18159633279551    4.61136751404524    5.20057213775223
H         5.42525563402309    4.55678089507137    1.65308182119586
H         7.09749628041525    2.08042444113285    0.81013461063568
H         6.39259152144414    2.63482570048973   -0.75855829908406
H         6.67908676128221   -0.16109580771650   -0.09931582270793
H         5.45101313448234    0.48783442757782   -1.20012054619786
H         4.11773280466437   -1.65027294793418    1.97628126488004
H         5.88664528258569   -1.47153789961210    1.45556866602843
H         4.10761593229867   -2.93357982567741   -0.15360186189714
H         5.51243365463819   -1.91114578324447   -0.67652588765550
