36
 energy: -47.824590823194 gnorm: 0.133164421774 xtb: 6.4.1 (79825abcba525fcdf90b791dcacef51065a7a4e7)
C         1.97574380195587   -0.58269149027989    0.71628535069025
C         3.25889038815530   -0.11176970084830   -0.00670562187250
C         3.13584644015537    1.35749324665271   -0.36569046947076
C         4.04025178898667    1.64643831635996    0.91006487982847
N         3.48224416752045    2.08244319450147    2.18405073348868
C         4.08645169398033    3.40799378233686    2.50865219479237
C         4.63634419582904    3.47142645664382    3.97247190342579
N         3.74156306641789    4.17404422589465    4.90542459693984
C         5.09130827567556    3.62045865061973    1.39980268605190
C         5.03281689104716    2.62341049600113    0.52806574774546
C         5.89860241061422    2.06401152670022   -0.51187239766084
C         5.97250610203908    0.57369449468045   -0.09913481129049
C         4.68224358607795    0.26969479202136    0.80530353301857
C         4.84400845708098   -1.10926831989325    1.44612291014514
C         4.50658421120373   -1.95146569913950    0.20517954326817
O         3.81291784902671   -1.17244487727592   -0.80039843082153
H         1.18309077809800   -0.19348700808696    0.06813248752248
H         1.65177005321746   -0.02509309194449    1.59628110738890
H         1.86028491188763   -1.65729180921699    0.92064561430566
H         2.10695725391272    1.72115226562554   -0.27110869626047
H         3.53974105243496    1.68361906181541   -1.33483388863519
H         2.46602154499165    2.19227761619346    2.13439856179955
H         3.41833332319035    4.27129682503574    2.56533035278126
H         5.63581962666812    3.91489783333649    4.04680175491617
H         4.77334367217138    2.41895524847005    4.25679959167080
H         3.76078699827918    3.68422474940279    5.80123748005300
H         2.74623303855735    4.14830529458577    4.67271547469985
H         5.72533429979390    4.49071238352961    1.44686797898648
H         6.89936984671521    2.46068777431031   -0.72028955304501
H         5.28516701228260    2.19735596007836   -1.40895406277400
H         6.83768436741293    0.38291389816941    0.55249668042173
H         5.85506658988823   -0.17677633769543   -0.88728167315319
H         4.09137011415119   -1.26130843425888    2.22461610826767
H         5.88479805237271   -1.32786371687005    1.72215415582399
H         3.86391960069420   -2.82845283795322    0.35834494599878
H         5.44670980424731   -2.32090403474569   -0.20968211172529
