36
 energy: -47.847502835442 gnorm: 0.137168320427 xtb: 6.4.1 (79825abcba525fcdf90b791dcacef51065a7a4e7)
C         1.79607904171493   -0.05408715066564    0.66692572498027
C         3.09809412825988    0.16525512894872   -0.13780673560571
C         3.33096500195927    1.62627252858280   -0.47536123645556
C         4.10718421913311    1.77304458308901    0.90483145382932
N         3.42188476658083    2.33354583141731    2.06272432874602
C         4.03186883819113    3.65419250689004    2.39638437285754
C         3.99714959442680    3.79891757728598    3.95427488054700
N         4.81206629725930    2.74741418700531    4.58273100868145
C         5.40313392915307    3.54275240642920    1.77057411986386
C         5.34749477159193    2.51200483398011    0.93875962097056
C         6.39848710709648    1.74200281178702    0.27055665359907
C         5.81673852379965    0.34796237981511   -0.06867611531857
C         4.47822441578402    0.29898848377625    0.81516981519663
C         4.43348256706204   -1.12659981595130    1.36657986793876
C         3.99728962872430   -1.87773129032318    0.09826235718995
O         3.37059501673969   -1.02585122065060   -0.89208495104950
H         0.93216393478318    0.19082517764883    0.03959028042350
H         1.75897979428870    0.50911845303579    1.60056947800575
H         1.77440711083327   -1.11893201295599    0.94169023246026
H         2.46893192360366    2.22641475268560   -0.78606194980566
H         4.00042203518056    1.72991871297154   -1.34127850262492
H         2.47272559107371    2.58464174501870    1.77413277453535
H         3.50186378126555    4.41558317074715    1.81822728422952
H         2.97437935005321    3.64800005476732    4.31801633708309
H         4.48626905579360    4.75507735140608    4.18628214136637
H         5.74563856202662    2.78950306173606    4.17109433451296
H         4.36122811835099    1.85531206589908    4.36733223680183
H         6.27396211657742    4.12610451616840    2.02138143171663
H         7.26013132243371    1.59963303955005    0.93359913937995
H         6.72971356554235    2.34458834751373   -0.58151082057185
H         6.55445915034675   -0.41148840570484    0.22890933462086
H         5.63111148667573    0.27740380319588   -1.14512310617031
H         3.71934529432096   -1.21142506104024    2.19025762059508
H         5.40736879496237   -1.34836760340399    1.82438432010203
H         3.22106966839534   -2.60681190209439    0.36567206464516
H         4.76836379858751   -2.42357545772859   -0.44939612252695
