36
 energy: -47.843721467473 gnorm: 0.147582735598 xtb: 6.4.1 (79825abcba525fcdf90b791dcacef51065a7a4e7)
C         1.79370338775019   -0.07354356428317    0.46722409592125
C         3.18132327825448    0.16787538387771   -0.17087979730651
C         3.44785894711334    1.58146852810192   -0.65405355278700
C         4.07348173020860    1.89851615134423    0.77320503605137
N         3.22357561564280    2.57145121529097    1.74754114919950
C         4.04098297558831    3.70327015589047    2.27512841060744
C         4.10877017535310    3.59872054013421    3.83514375311264
N         4.80039726110598    2.35383521824854    4.20476277854669
C         5.43050984620445    3.54753529611869    1.70120590658508
C         5.36722257572873    2.53603308352688    0.84662435641982
C         6.37183609388222    1.77051016468829    0.10587504418463
C         5.84516368629355    0.32832801902276    0.30483694783101
C         4.38899475058653    0.42229344775600    0.97262778246983
C         4.15279424502257   -0.86332859225227    1.76619071535367
C         4.00430634180363   -1.82712810997779    0.57785831522247
O         3.74445601687341   -1.07060741671273   -0.63019293468301
H         1.62678255933000    0.39222086291257    1.44450709239002
H         1.56474697461709   -1.13596370872596    0.56267020275676
H         1.03451124257634    0.32210777888581   -0.22338946319782
H         2.56418490464657    2.17411970752159   -0.91422925424089
H         4.22514082473094    1.60831089419336   -1.43112518672134
H         2.41618110611608    3.02377453793998    1.31078595564585
H         3.51662960796669    4.61496499839157    1.97721436261281
H         3.11335585183007    3.56484476436413    4.29246822643599
H         4.75688016590017    4.39771467517130    4.22097861594669
H         5.73174592616936    2.32939180341091    3.78671304233495
H         4.42268839546747    1.43322840680338    3.96956711198599
H         6.13578978146621    4.29737696739216    2.02036637794607
H         7.42367726718942    1.81009618934643    0.41310190202210
H         6.31012807442507    2.11218252104977   -0.93253306145422
H         6.38850500413982   -0.32353844220464    1.00441156293940
H         5.74508176360120   -0.24160889764953   -0.62431833885494
H         3.21638502673153   -0.81155637667905    2.32840936484232
H         4.93537184837333   -1.20649024703508    2.45686619872744
H         3.25546579689103   -2.58422701670215    0.84548304620570
H         4.98697917725465   -2.28505586174616    0.44713989587292
