36
 energy: -47.845404507909 gnorm: 0.125023866100 xtb: 6.4.1 (79825abcba525fcdf90b791dcacef51065a7a4e7)
C         1.80913256648046    0.18681194853062    0.54222249050441
C         3.18346739092793    0.12912945585067   -0.16405308067700
C         3.50910339457463    1.54301933101572   -0.60859818296165
C         4.12747429704992    1.84428818007724    0.82522351187564
N         3.28471997518984    2.51544913124977    1.80696738740180
C         4.06295423737580    3.68640707555692    2.30769303189060
C         4.08750338436550    3.60194618095974    3.87020297380787
N         4.48067488765195    2.29515146986676    4.42012067501378
C         5.39607106225990    3.57160282515777    1.60480978907769
C         5.37995094204879    2.55919552973635    0.74910934226340
C         6.32679459132971    1.82336823844752   -0.09114569167354
C         5.91282050712990    0.35832193197571    0.19014383075959
C         4.47068036137056    0.36238722660133    0.89400274319268
C         4.39299449596722   -0.95981457202057    1.65826983613585
C         3.96859109626445   -1.92628334413516    0.54072254422883
O         3.49656651228090   -1.19651931346752   -0.61853188667066
H         1.42875772328935   -0.83339929674491    0.66207705374486
H         1.09100319018982    0.72629026816034   -0.07706815726036
H         1.91161101766048    0.64331659680984    1.53769296382885
H         2.60228200828991    2.11960556845874   -0.82080071534397
H         4.14654039580895    1.71528932368311   -1.48764601143714
H         2.42229642586315    2.79089699049988    1.32990189003402
H         3.51072463425597    4.61367522089262    2.13419092277276
H         3.04958510223133    3.72667986273171    4.19930792409210
H         4.62604897356961    4.38015010912185    4.42848071363670
H         5.48967748609956    2.28394102972281    4.57684170880294
H         4.23662184751521    1.54754212581752    3.76665585335573
H         6.23407381429436    4.10937470961198    2.01723980419546
H         7.34661951597260    2.10639345043632    0.19552328414517
H         6.19471890924258    2.12521167859331   -1.13531322082806
H         6.70877080113111    0.07260669694085    0.89326846391974
H         5.85997737628577   -0.35234555239475   -0.64071919532848
H         3.75800196909841   -0.92872045189241    2.54790462623005
H         5.36971620235428   -1.17970592414573    2.11090959897934
H         3.21245758287342   -2.65503606271403    0.86129313700397
H         4.80482410370274   -2.58411254161727    0.29494592911940
