36
 energy: -47.842800748450 gnorm: 0.138093552888 xtb: 6.4.1 (79825abcba525fcdf90b791dcacef51065a7a4e7)
C         1.81926043561124   -0.10210304120651    0.39448981172716
C         3.22104153497580    0.10239914067192   -0.22529827539866
C         3.40448937821683    1.56438444657315   -0.58818888775863
C         4.05712354360964    1.87927590944345    0.82740362815116
N         3.26039603895174    2.54367130397976    1.85127712664565
C         4.03330399691202    3.73762050526421    2.30362194501606
C         4.26090845449112    3.58602320148765    3.84452689652379
N         4.79002154880684    2.28988071840380    4.29703072564926
C         5.35575147760096    3.63879184707202    1.57850755681060
C         5.29950524991026    2.61072546360010    0.74342223465286
C         6.36365535405761    1.84390235949533    0.09261497937098
C         5.94473873772410    0.39722703664472    0.45108169833700
C         4.41164652136917    0.40167781858923    0.92522360112942
C         4.17659596863415   -0.90171622901869    1.68960050902144
C         3.93629457581329   -1.88659344132424    0.53402091698738
O         3.63581578926884   -1.18804673380698   -0.69925868489640
H         1.71255762571232    0.35361071761673    1.38485368647727
H         1.65699203729386   -1.17197261824257    0.53347046068489
H         1.09954101818191    0.32254168285014   -0.32073085945232
H         2.55801913511113    2.10860240435343   -1.02076441646784
H         4.18717766800769    1.68834508985092   -1.35026549767944
H         2.31840042359266    2.80865760247475    1.55183778846946
H         3.59415327130097    4.72486775922112    2.13816432080913
H         3.31173917249729    3.71792429695622    4.37633766495776
H         4.79734390989388    4.45453322745810    4.25101683302262
H         5.68976108159937    2.14935926058961    3.83497456914683
H         4.18886260808458    1.56830514588246    3.89276038271872
H         6.17027157444043    4.33957631284220    1.66219664725035
H         7.38283808821565    2.02942633216196    0.45202096045888
H         6.30131444856591    2.15483914852057   -0.95536936946823
H         6.57124529396727    0.05918072457654    1.28939461235869
H         6.04384955496268   -0.38855266555239   -0.30449843629690
H         3.24117620106723   -0.84436159695258    2.25292342364479
H         4.96558516574050   -1.04533514959730    2.44065969899397
H         2.97510289616929   -2.35910847661696    0.77573151147958
H         4.71393483135496   -2.63099279218167    0.35078260448993
