36
 energy: -47.840232409889 gnorm: 0.151024411760 xtb: 6.4.1 (79825abcba525fcdf90b791dcacef51065a7a4e7)
C         1.76250254359166    0.08593850090415    0.49390953139215
C         3.19020910751309    0.07303884266790   -0.09975385690259
C         3.50550055461031    1.43168393148479   -0.69759877925349
C         4.05465656899649    1.91073963082812    0.71588042352420
N         3.18126673063068    2.62564101064582    1.63817055959733
C         3.96051892014429    3.71696423843257    2.29337806613153
C         4.06239550626966    3.35593104491036    3.81273641843684
N         5.09669914314652    2.35417771562800    4.11508055076023
C         5.28320106368715    3.64062886606980    1.56597846291634
C         5.30412741006092    2.63477835155117    0.70268334887890
C         6.36123279337077    1.81898100522343    0.10186216034316
C         5.89267108116251    0.35955818795683    0.31956372854035
C         4.42952234412735    0.45721014119423    0.97137808770917
C         4.11486639215059   -0.76637776295353    1.83287743027230
C         4.03640594693005   -1.85997921616834    0.75539337617343
O         3.49492671250234   -1.28354180816700   -0.45858921392953
H         1.59253496510551   -0.80644462044076    1.10599163997962
H         1.17846096178121   -0.07734823582723   -0.41300856524067
H         1.37951524687837    0.99980145450861    0.97143965807713
H         2.66214930529113    1.95862748321683   -1.15683270534085
H         4.32817683440074    1.37926410973138   -1.42504902387573
H         2.36316180126815    3.09589318578531    1.24218494120896
H         3.52762736134612    4.71778173810002    2.21685384400701
H         3.09848922223324    2.94488821907171    4.13378375162847
H         4.38648105592884    4.24172225458446    4.37634019892644
H         6.02596126547239    2.52267609719494    3.72668178188561
H         4.73289327244570    1.43196874846641    3.86473319370938
H         6.11207066641585    4.27215238427210    1.84111288074029
H         7.29881868260186    1.98921903464028    0.64433515994023
H         6.52929610232730    2.13997881324295   -0.93136308558677
H         6.51200229379014   -0.09506062949014    1.10652299944741
H         5.94291438698557   -0.24851366547607   -0.58922572324443
H         3.22683236328339   -0.66099046574843    2.46210035141633
H         5.09404648727636   -0.99956300951748    2.27338988098192
H         3.23022426623449   -2.53900682779335    1.06292632410841
H         5.00533580482072   -2.32022078245616    0.55098284074439
