36
 energy: -47.837357288529 gnorm: 0.133984639209 xtb: 6.4.1 (79825abcba525fcdf90b791dcacef51065a7a4e7)
C         1.73034506902026   -0.00823960127694    0.27641987505917
C         3.21086224183184    0.12103243321027   -0.15055354830237
C         3.56775030507425    1.55238078255621   -0.50638573310338
C         4.09826951815224    1.83479047146638    0.96595399337400
N         3.25549459775460    2.55045950136315    1.91572299853411
C         3.97042922393964    3.79234563376888    2.33298136905907
C         4.29962977388443    3.67233218483454    3.85823458191109
N         4.87862449483458    2.37737881565597    4.24883232815454
C         5.28055154077577    3.74490788420166    1.58081484193755
C         5.34087119728520    2.57066981188574    0.96846027863492
C         6.32659590946978    1.80532413235613    0.20257779477171
C         5.81892358207535    0.35346011467437    0.37926589880984
C         4.36371222390974    0.33810458508647    1.05552486448749
C         4.17195164052264   -1.05834450399199    1.64841160615615
C         4.00070932834190   -1.95429346931579    0.41105814131762
O         3.68501413078488   -1.10808109018936   -0.72185612303273
H         1.42097079075636   -0.90028414963105    0.83178030210432
H         1.14093145765740   -0.12125187418894   -0.63467144050318
H         1.43565021632181    0.93087133748324    0.76742433361525
H         2.73107773915969    2.21089145671371   -0.76358086747112
H         4.27438230270647    1.58845373045640   -1.34787127838680
H         2.27072585191412    2.71434210815685    1.69075543040927
H         3.30119902354072    4.64004977669934    2.16441284635119
H         3.47008301948177    3.93424796026670    4.52486433400947
H         5.19928003003659    4.28676747712349    4.00108210358708
H         5.40744139707092    2.02383412035319    3.45000053705993
H         4.20213087683877    1.63670705174458    4.44697271315136
H         6.03462032847470    4.47525599511969    1.82477716930913
H         7.38541053209407    2.02569455983619    0.38333652608403
H         6.17856735984922    2.14663724584124   -0.82719507899804
H         6.61036149773725   -0.26781986420714    0.82332842963441
H         5.71968666234964   -0.02077953246571   -0.64458503933296
H         3.29704085582740   -1.06695048719456    2.30422366854756
H         5.09601911594070   -1.44882613991399    2.09656743476032
H         3.16830931944547   -2.63945954888055    0.61900425167677
H         4.95751543647085   -2.43722428469188    0.20193871239853
