36
 energy: -47.838228640077 gnorm: 0.140531646502 xtb: 6.4.1 (79825abcba525fcdf90b791dcacef51065a7a4e7)
C         1.63142459671767   -0.04686861501479    0.41411915656728
C         3.08706715397126    0.17290400868806   -0.05890663524771
C         3.30701705795997    1.59902014352154   -0.52854323182803
C         4.04802754486527    1.85573142415932    0.85492810078150
N         3.17322029651338    2.41890491651496    1.87574188419747
C         3.94743186696199    3.59146504538904    2.37894802220026
C         4.23252551982580    3.43352160759807    3.90961750972163
N         5.20270681301681    2.35181283546399    4.14061557570385
C         5.20176937516485    3.72738490481549    1.54672898711590
C         5.27313955995782    2.61966602584766    0.82194156040909
C         6.33253845895858    1.87404298787850    0.13951685892036
C         5.82237313361273    0.41805939511424    0.26875358130817
C         4.38832736578882    0.37752835712368    0.98783080918284
C         4.28936504038432   -0.96345565127110    1.71606512062205
C         4.15342008063407   -1.82890891599809    0.45289384284390
O         3.63064301255162   -1.02550178150340   -0.63360267725135
H         1.52160883364069   -0.95028024901654    1.02376580808996
H         1.02382937522008   -0.20728723915826   -0.47771125079599
H         1.28088104447433    0.81093567039485    1.00669895370759
H         2.40079740025621    2.04758055272348   -0.94969182114332
H         4.03870507345460    1.76261404801336   -1.33265618246704
H         2.36779999265665    2.88622074579021    1.45129938655580
H         3.32738543196991    4.48564715657869    2.27470077881374
H         3.23117719753336    3.19225191635540    4.28409499741225
H         4.59581183682011    4.38932322943201    4.31182770562025
H         6.05468164578661    2.64788666007355    3.66181230422846
H         4.81075117731642    1.44820751404301    3.86608672118303
H         6.01894060048826    4.35899876846561    1.85469138248641
H         7.29715698981396    2.03221794532055    0.63632368342357
H         6.47523712092667    2.11824569023506   -0.91823614325847
H         6.49915809522760   -0.07069265918211    0.98474091157259
H         5.88966665054878   -0.13540523110233   -0.67322440467032
H         3.43203415586554   -1.02949815730610    2.39153129066524
H         5.19712825318295   -1.16805719944218    2.30029487647039
H         3.47146084180415   -2.68086567885226    0.57407628659788
H         5.13771079900248   -2.20404311180906    0.16500992337687
