36
 energy: -47.845975090369 gnorm: 0.141073808919 xtb: 6.4.1 (79825abcba525fcdf90b791dcacef51065a7a4e7)
C         1.75931089975490    0.07163183396066    0.58307477052954
C         3.13463799193526    0.15155229492995   -0.11909099624703
C         3.40879406375227    1.56021234724158   -0.61230396289309
C         4.09147052186777    1.88521494676191    0.78673725336854
N         3.22171087573661    2.45833984003174    1.80632486792769
C         3.86137416852812    3.69673325804529    2.33992570166250
C         4.17159272250927    3.35935059370716    3.83629162973038
N         5.23435674584610    2.35823426591841    4.01796289145680
C         5.16595813385608    3.73370667311156    1.57761409754215
C         5.31900765849984    2.64423527365405    0.83796581620426
C         6.35389519567492    1.82960802233113    0.19814281389536
C         5.83454994411155    0.37148482459531    0.23002190161549
C         4.40382538659158    0.40456818725523    0.95606241129406
C         4.23952596379111   -0.89681921725525    1.74203530056069
C         4.06338640466562   -1.85998911514975    0.55697383923820
O         3.52515509534523   -1.14929666189064   -0.58515438030837
H         1.49343436614756   -0.98809860988290    0.50457524849556
H         0.97411844092022    0.63531861626968    0.07711273858582
H         1.78386719350248    0.48390931036632    1.60252759435715
H         2.56567843767409    2.14564995055831   -0.99469838541982
H         4.24629781523518    1.56104451903197   -1.32456425798220
H         2.27109208034945    2.66942521381761    1.49167543865563
H         3.16854858816226    4.54087806687344    2.29197791382931
H         3.27988280408043    2.96442764926393    4.33632383724043
H         4.54272027807699    4.26774332307191    4.33065355956744
H         5.86047456980978    2.58666728434814    3.24429098136580
H         4.95845370941156    1.39858506223831    3.79785198722644
H         5.80220502113426    4.57998591075028    1.77897717688394
H         7.27827087541688    1.98753675718178    0.76639748346906
H         6.60566918913924    2.05974623017350   -0.84228284653389
H         6.47519096645937   -0.27667017500475    0.84567480522804
H         5.79314437658167    0.02860380237301   -0.80867546453904
H         3.32876908657412   -0.99554776078856    2.33903361908237
H         5.13158170784281   -1.06205000552047    2.36183816005923
H         3.35935763787208   -2.63202243511164    0.89445267111154
H         5.01551900547435   -2.25106876740420    0.19237645758495
