36
 energy: -47.851058022602 gnorm: 0.125260633690 xtb: 6.4.1 (79825abcba525fcdf90b791dcacef51065a7a4e7)
C         1.93473351867795    0.08825398929826    0.76020612924048
C         3.21542297377837    0.08395922235802   -0.10626066989155
C         3.43972669208161    1.48436837948616   -0.64596961893788
C         4.14960889890110    1.79199500150992    0.74342711139347
N         3.29393870116583    2.43858571689804    1.73047414189278
C         3.97833820485851    3.69480185284402    2.15595690733602
C         3.99809903114982    3.74707373848058    3.71994244761615
N         4.39364021959992    2.49398643143005    4.38177708745395
C         5.37022036895481    3.59474683901173    1.57537240523299
C         5.39459761016569    2.52186564363196    0.79705156765020
C         6.49165864330993    1.77382844506571    0.17989628202094
C         5.89223455127412    0.36387052704573   -0.04274342301376
C         4.56793978886922    0.33280393167381    0.86306027407506
C         4.41059877973287   -0.92514644903759    1.71814009494343
C         3.91398923277098   -1.93175865763486    0.66780543697895
O         3.54748790704170   -1.24021321251497   -0.55148749399906
H         1.42565560607837   -0.88056622397211    0.71429109016361
H         1.18266799139414    0.80091837421800    0.41848332156139
H         2.10613989536660    0.32009925236000    1.82168029910103
H         2.60559411305122    2.11170557976841   -0.97835119228263
H         4.16990430211148    1.52864875311922   -1.46670578826775
H         2.35541322015403    2.64173207003139    1.37672440760358
H         3.46271691511159    4.61661217431899    1.87437717658863
H         3.04369364215469    3.99034377786142    4.20064294075036
H         4.68975719631996    4.55067534901559    4.00828281257539
H         5.40368119443031    2.34383135410941    4.37513767133011
H         3.97425975977218    1.69387798993390    3.90277353656005
H         6.20995515359922    4.23405463581148    1.79372249116296
H         7.37853091355375    1.82525924160698    0.82265416271023
H         6.74225454102267    2.20933875618218   -0.79292011372570
H         6.57993912126739   -0.46638471116787    0.17472608241757
H         5.55288300762053    0.32540797313994   -1.08271226409404
H         3.67713259536816   -0.95942505084792    2.52837755796275
H         5.38978748875569   -1.13651768483872    2.16950681960018
H         3.03204002500125   -2.45415441024732    1.06131806384662
H         4.70187276981255   -2.64055780809091    0.40460525985335
