36
 energy: -47.847255368295 gnorm: 0.139565590000 xtb: 6.4.1 (79825abcba525fcdf90b791dcacef51065a7a4e7)
C         1.82834662777506    0.02247180685932    0.52997683023205
C         3.23337152994035    0.05169109897970   -0.11500372294605
C         3.47622372895440    1.46891377152159   -0.60002582382282
C         4.12283626248826    1.80737622708668    0.81288803614120
N         3.31712445685869    2.47916155924720    1.82483955838236
C         3.98569659326099    3.75128700099354    2.22761172141669
C         3.92920155124056    3.73656886872647    3.79150599579672
N         4.74658208326984    2.66534853904701    4.38233743722671
C         5.34475455261552    3.61816093937368    1.57979674026872
C         5.37936916407433    2.51869796319292    0.83990847682177
C         6.41360162245186    1.77765745539970    0.11519790416091
C         5.86674860336264    0.32954991073386    0.08699613835986
C         4.50938938157494    0.34033454400736    0.94295276806998
C         4.31524756954912   -0.95682625159307    1.72910779776031
C         3.90554465268872   -1.94346976384072    0.62377066148350
O         3.51773979432443   -1.26996774850770   -0.59902777234284
H         1.56656637334250   -1.03821087839250    0.60937746166985
H         1.19138163741905    0.59572530821152   -0.14524430925913
H         1.74003375850600    0.52480808217857    1.50451204951419
H         2.70947250447689    2.16130947074889   -0.96401400567193
H         4.28865516347548    1.66298968564888   -1.31488081686481
H         2.30650691377034    2.63620322675489    1.78980368294811
H         3.51072672493899    4.65062307403070    1.82700594971306
H         2.88583186440763    3.48114947857469    4.00895380496963
H         4.22346065420138    4.72990025226097    4.15758122806086
H         5.74723001207232    2.82581368981259    4.25692588463027
H         4.50460467418256    1.80939533071339    3.87806674828208
H         6.22175126391536    4.17665664639704    1.86353085016664
H         7.43790540021673    1.83161651386771    0.50277428233398
H         6.60023095763816    2.13298409618734   -0.90350310914950
H         6.64465881753235   -0.36164556646647    0.44288774906107
H         5.67785325369106   -0.01957451736172   -0.93310421085658
H         3.57094547689260   -0.87308415220746    2.52574703523328
H         5.19112468078988   -1.43180460057439    2.19220079375592
H         3.05511202948463   -2.56736413905638    0.92890027541037
H         4.75344699437741   -2.60070550820733    0.41997214531227
