36
 energy: -47.840085636895 gnorm: 0.153990233620 xtb: 6.4.1 (79825abcba525fcdf90b791dcacef51065a7a4e7)
C         1.77928159423603    0.16944417921588    0.35435699531389
C         3.21335582619653    0.29029457647700   -0.21112945191885
C         3.42033107851976    1.75346945945679   -0.55612832594013
C         4.11041444257537    1.92223648378230    0.86664811711550
N         3.30926614849244    2.44388388009065    1.96690185798931
C         4.05259062367054    3.60776852323111    2.53290406734791
C         4.19152857033174    3.36661893654358    4.07294196614315
N         4.82551647235850    2.09665748170600    4.46019248384564
C         5.39920449458903    3.54185707305878    1.84974077017079
C         5.38578717880077    2.59769322131682    0.91924292510805
C         6.34672127803229    1.85321855670590    0.10294251869453
C         5.81062689465790    0.40114070428340    0.13346684938393
C         4.42681716575995    0.43487350877252    0.94533802609657
C         4.28963216051380   -0.98765171219451    1.48935928811263
C         3.99082392118048   -1.81695826499689    0.22997199393538
O         3.50971864899528   -0.96629776397547   -0.83967654993131
H         1.45879556281990    1.15237664582596    0.71631498738182
H         1.54677205845214   -0.47537490804258    1.20312976958275
H         1.16355175518551   -0.07028488932256   -0.52499874870473
H         2.41888185490080    2.19526051760485   -0.59768244022032
H         4.04822785900862    1.94527261389364   -1.43799291228514
H         2.37233822368649    2.75133223248555    1.69326164412499
H         3.57579585366760    4.57509322574222    2.35447650890130
H         3.20182262589127    3.51995573072221    4.51804070921679
H         4.97507836890355    4.06327123240346    4.40162421434433
H         5.62184723970720    1.89050234662389    3.85510507799099
H         4.26694641702877    1.24021680295533    4.45759482362358
H         6.28223915863301    4.09610301349033    2.12288349253389
H         7.38553915549953    1.93747756423965    0.44365220682129
H         6.34844085740215    2.17411502101245   -0.94389165162678
H         6.48837882348919   -0.35050907298007    0.56384953218026
H         5.64058501896015    0.13878227079821   -0.91554594418328
H         3.42803364514750   -1.10115797404892    2.15298322723763
H         5.21371553151445   -1.33928168807215    1.96857378875445
H         3.13318551573529   -2.44311313910675    0.50920371522160
H         4.71988485449783   -2.50940062358759   -0.19596788119355
