36
 energy: -47.846857814757 gnorm: 0.123321902596 xtb: 6.4.1 (79825abcba525fcdf90b791dcacef51065a7a4e7)
C         1.71116429009861   -0.00628135240603    0.46388703925101
C         3.14859410847755    0.07742855350937   -0.09979439797927
C         3.37235587555124    1.53990266770252   -0.43720186111744
C         4.08243699739975    1.76351569182828    0.96806391754045
N         3.35245178661194    2.32023775006542    2.10018348388945
C         3.94895831615202    3.67082778514748    2.31836602100953
C         4.10980161956302    3.80929891246165    3.86889131201467
N         4.96670439592697    2.73831440532327    4.40125913858043
C         5.28796438829402    3.63112538445799    1.61842916316063
C         5.31083859813989    2.51948591229333    0.89649717137787
C         6.31987967495421    1.75386563765833    0.16189209268195
C         5.73760574882569    0.33455940515181   -0.04640039878211
C         4.46348793545603    0.28982604449106    0.92818905895948
C         4.37055161626099   -1.07838631217690    1.60473493453223
C         4.16821061233435   -1.90687933221831    0.32577073250743
O         3.60665232374922   -1.11731502702678   -0.75148227542252
H         1.56659731529555   -0.82974413459739    1.17162324915231
H         0.96919209010458   -0.06596568541179   -0.33372350790900
H         1.60317193658385    0.95775765385697    0.98237158497523
H         2.46549773337348    2.13988388551302   -0.56925264358490
H         4.00391684336140    1.83254241856622   -1.28821338242139
H         2.34078525811619    2.31878392728774    1.94602111419735
H         3.23214637626626    4.42366316667707    1.98027405075143
H         3.08718457059672    3.75135419911790    4.25881396558520
H         4.57480749762127    4.77441507945181    4.11307776359329
H         5.76387336732603    2.82467435423558    3.76893249438713
H         4.59043094127267    1.80509577570666    4.21954738764654
H         6.14740951837952    4.25462991768011    1.80320400872505
H         7.21951914496795    1.77673587822642    0.78835114369759
H         6.52610145750104    2.32137875481058   -0.75147564841716
H         6.49436642292355   -0.37537785917200    0.31809462081886
H         5.56539635331906    0.19176250969121   -1.11790725116792
H         3.44391140065316   -1.14928924080793    2.18087988861188
H         5.20925367914516   -1.51099218563307    2.16745259393575
H         3.47729803434473   -2.73142516496620    0.54565223376242
H         5.13269410670139   -2.31998221631137    0.02320072027724
