36
 energy: -47.842810543704 gnorm: 0.137862062771 xtb: 6.4.1 (79825abcba525fcdf90b791dcacef51065a7a4e7)
C         1.76245754903900   -0.08742454814570    0.33689877852564
C         3.21916052610063    0.09733714896658   -0.14769198734318
C         3.44024209366864    1.52733748051303   -0.60481966768028
C         4.07136294394132    1.88840169511265    0.80950322192299
N         3.15208181974924    2.65845859292778    1.63802448376979
C         3.92499422250526    3.77691984932999    2.25379073353480
C         4.20687011477459    3.52638615151992    3.77265624655166
N         5.03838607297873    2.34738152958292    4.06116106469599
C         5.26609766895081    3.71770555509465    1.55926894069421
C         5.29098628303037    2.66019934860031    0.76019898050469
C         6.33164062239003    1.80481548702139    0.18631729253947
C         5.92852534603943    0.33547126572232    0.46087993161791
C         4.41602234692363    0.41638501988995    0.99096458193373
C         4.25889634981588   -0.85457037714263    1.82663238269034
C         3.90890610653901   -1.86335394553352    0.72075959761109
O         3.65450716740898   -1.21121804871497   -0.54779608906658
H         1.58054185042318   -1.16104653987665    0.45574160864368
H         1.16272577248564    0.33761938372518   -0.46928173202402
H         1.51851745250648    0.40649059068600    1.28894964652834
H         2.45712990197406    1.99135170432028   -0.73893843502302
H         4.16592351465740    1.59921204813951   -1.42758845491587
H         2.23409276952012    2.87006297772544    1.23832824114025
H         3.45700741995448    4.76161156946348    2.17468769258174
H         3.29633388331490    3.44022467910233    4.37651292711010
H         4.68415471712290    4.43990560090845    4.15342960720062
H         5.89526397964055    2.34111068459523    3.50573840715556
H         4.56872965098426    1.45760315100391    3.87891076448921
H         5.95295024093454    4.50626467466679    1.81994839485427
H         7.32237327163762    2.01691294586122    0.60558895666139
H         6.53244397639215    1.85404132507513   -0.88890087532538
H         6.60120798742678   -0.19014141127018    1.15426560974585
H         6.04503244878748   -0.26736485723551   -0.44531471517433
H         3.44095014551699   -0.92949181299527    2.54842404147775
H         5.18573706448280   -1.11999646317792    2.35363858497897
H         2.97461459077718   -2.36759355102556    1.00080548506817
H         4.61411391330021   -2.68012949432408    0.55345540892638
