36
 energy: -47.846528020719 gnorm: 0.133345778549 xtb: 6.4.1 (79825abcba525fcdf90b791dcacef51065a7a4e7)
C         1.73731171873104   -0.08578885783980    0.45646452710938
C         3.11479159013232    0.16702519557815   -0.19896117244999
C         3.38734321144053    1.65434035150758   -0.32683959276488
C         4.14034836209062    1.70469785233243    1.07295941558262
N         3.41149621788790    2.29413011656148    2.18913894199510
C         3.94855991637336    3.68424565039098    2.27073853816612
C         4.14787913781311    3.99318379584791    3.79192313275360
N         4.69330193382125    2.79951735200079    4.45703972353793
C         5.28478682248078    3.61072380673417    1.56823063878221
C         5.41450265562099    2.38443303963425    1.08157253563773
C         6.48314511758584    1.64514509886395    0.40670992582303
C         5.78635457793836    0.34172666500206   -0.05420460086539
C         4.44817112265411    0.23422620869481    0.82494873202387
C         4.34393158513821   -1.15715531403915    1.45068680595326
C         4.06838865758868   -1.93173201938654    0.15176455255126
O         3.52444504370823   -1.04288883852213   -0.85487177225287
H         1.43328270182011   -1.13520053285045    0.37783501824052
H         0.95815308791487    0.42422677783895   -0.11192216302138
H         1.65236053597084    0.24161058309262    1.50310327840149
H         2.57846441252777    2.39178101163606   -0.36810609581796
H         4.11621520848798    1.97126929372654   -1.08646420756933
H         2.39985380466020    2.21799926386282    2.05489647655022
H         3.28584222526365    4.44987450700471    1.85902945783768
H         3.18719582025727    4.26186177270869    4.24584228975533
H         4.82181733498859    4.83824340932350    3.98937758308732
H         5.70174103169839    2.67926612528256    4.35043943608154
H         4.22737694088906    1.98436015414553    4.05215637289060
H         6.06365836573250    4.35530134839840    1.59079136694696
H         7.28966953171244    1.37267416127827    1.09779828278698
H         6.99286432221761    2.15329273698930   -0.41840309148037
H         6.41312698686550   -0.55731941088207    0.03759274543561
H         5.46876627518141    0.42355495348177   -1.09853011198110
H         3.40084277629099   -1.14285839062095    2.00386980624990
H         5.22823081597457   -1.39885669975063    2.05633974460484
H         3.41928486196110   -2.78450866045761    0.39055349224411
H         5.03250763581666   -2.31719365509733   -0.18635516029226
