36
 energy: -47.844061430931 gnorm: 0.136256433864 xtb: 6.4.1 (79825abcba525fcdf90b791dcacef51065a7a4e7)
C         1.80050978008272    0.17472504824437    0.61994111036623
C         3.15683722149077    0.14435948606486   -0.12195002992820
C         3.51996653779964    1.55094977632555   -0.56056669607578
C         4.18532640457877    1.83270920671039    0.85608357848780
N         3.26626114013093    2.53701527665807    1.74139984883835
C         3.96862018796892    3.73125760089579    2.29637217457700
C         3.89504446987448    3.51729335197376    3.84491326994649
N         4.79496436797984    2.47111475377892    4.35516834131172
C         5.33958933501626    3.60017711954764    1.67372714349815
C         5.44343862077004    2.54123945479090    0.88295664841180
C         6.46634318543259    1.78132132786266    0.16172582697912
C         5.93352866957287    0.32841333817166    0.11671382400986
C         4.51007961423936    0.34506514795748    0.85746857557483
C         4.36692810683319   -1.00064694031447    1.56945417835142
C         3.91088084990567   -1.94284238886941    0.44367413041914
O         3.41431961107997   -1.15826492871231   -0.66857526851393
H         1.14120061820250   -0.69814576431472    0.56259046183721
H         1.17171823020929    0.92235748694506    0.13421023163190
H         1.89158661835326    0.49009713274725    1.66975311647544
H         2.62976579431547    2.12591445001966   -0.83763147476457
H         4.23493200653191    1.47205918767750   -1.39202842717137
H         2.29458920472701    2.52698599753325    1.42047857617820
H         3.57004475844703    4.71070167857975    2.01939987666768
H         2.84805522471504    3.26682662847123    4.05039528907341
H         4.28570222386958    4.39274971558537    4.38182053046071
H         5.73946168452951    2.77753199965160    4.11682680240213
H         4.63570379880196    1.58033236791350    3.87910038206840
H         6.17685272723666    4.21579925764867    1.95928819507300
H         7.42118183949411    1.85984548603087    0.69505719390083
H         6.48650713939767    2.26959771252278   -0.81807969168714
H         6.57812378611334   -0.25026394058321    0.79434503345801
H         5.94315128469757   -0.12731731636376   -0.87847008599431
H         3.58586603439312   -0.97941043607710    2.33438780744013
H         5.24296387166960   -1.28617781932981    2.16799717030471
H         3.10959908846498   -2.59666411962892    0.81252179651361
H         4.70206164509475   -2.56031299698143    0.01333236209899
