36
 energy: -47.839374155987 gnorm: 0.135599304269 xtb: 6.4.1 (79825abcba525fcdf90b791dcacef51065a7a4e7)
C         1.80892696101076   -0.06064709738941    0.51473602549986
C         3.17563903459753    0.13973366843316   -0.18016995173349
C         3.49246826202443    1.58131292688140   -0.53260748424745
C         4.14527159403033    1.81953199975629    0.89780841301124
N         3.39772948076805    2.38826457170028    2.01236525399869
C         3.95945169209774    3.71586269005584    2.39897699436084
C         4.12126297933303    3.77993084542435    3.95425381330088
N         4.72629067500480    2.50259776097973    4.36299259706018
C         5.29683204130621    3.61295422020499    1.70237885580031
C         5.37048193587929    2.58352685375949    0.87032921236043
C         6.46976837576204    1.78880143828154    0.31899987878637
C         5.81636207129252    0.40718714029394    0.07189435429070
C         4.44737394656190    0.32714178696456    0.90536081366427
C         4.34647104789077   -1.08150704167424    1.49177701424138
C         3.87452423110515   -1.90412565798268    0.28196012895985
O         3.59885607451210   -1.05333939011593   -0.85795362852309
H         2.01322754040028   -0.68238538781702    1.39313450747692
H         0.99853792368485   -0.42245975943339   -0.11979432965240
H         1.41684762157326    0.87888778104026    0.93115863969128
H         2.60876218823414    2.15145077276049   -0.83889664890653
H         4.14470664066547    1.60634084739847   -1.41730328871250
H         2.37703480672658    2.41781589127857    1.94493750280123
H         3.36711858503361    4.57493416550996    2.07336308406361
H         3.20410961070296    4.02619348597866    4.50136196614977
H         4.85318828562374    4.53292340327122    4.27766421060148
H         5.47440185970423    2.35037930804875    3.68480929189126
H         4.05582910632500    1.78044727738523    4.09008629045022
H         6.04253559119329    4.39019411307440    1.73939343875243
H         7.34641284407014    1.68833646802122    0.96994266623258
H         6.85576779148651    2.30491612308501   -0.56613816429790
H         6.47966976354634   -0.42386859644992    0.35282777104482
H         5.52724147326699    0.22260226278023   -0.96758230790823
H         3.62923536232389   -1.11749418893924    2.31634375224430
H         5.31979529793153   -1.33558668586726    1.93370878673526
H         2.96145271074853   -2.48660145569987    0.46253217248352
H         4.57242644790228   -2.67090258178482   -0.06070105295116
