36
 energy: -47.833868605988 gnorm: 0.141063479542 xtb: 6.4.1 (79825abcba525fcdf90b791dcacef51065a7a4e7)
C         1.77389002486356    0.17608124895112    0.46257012533645
C         3.20231777923494    0.08908363344189   -0.12306988311308
C         3.54117412158398    1.49565201982903   -0.58076571837856
C         4.09702389381275    1.82558542353163    0.87221918461663
N         3.25136646101341    2.56188272547581    1.80347784831003
C         4.02180514519343    3.72950951897489    2.32365969085278
C         4.11619904168767    3.67531513781021    3.88485358498870
N         4.66933330470352    2.34877800386937    4.19957161029945
C         5.30293536290800    3.70773863247768    1.52200095975459
C         5.33980574921404    2.56102375589369    0.85781934572825
C         6.38155848073924    1.76001164284966    0.21197566137208
C         5.82288252576498    0.31659970648163    0.17588993349023
C         4.43919318939684    0.34638346090564    0.98812071650041
C         4.31635895994118   -0.98825386415418    1.72433526274295
C         4.09665578718821   -1.94479301403143    0.54118039093334
O         3.53603906695814   -1.22840042004000   -0.58652707337744
H         1.77920922960701    0.91422854903422    1.27188550883217
H         1.53884244592250   -0.82131090239837    0.83704187994940
H         0.93285633924117    0.50671282248886   -0.16449039164343
H         2.75153727851550    2.21348559931339   -0.82773785591920
H         4.35711588369913    1.48717039724571   -1.31757984626980
H         2.40326324233284    2.92375767567779    1.35962557255903
H         3.47666186786688    4.64815255464615    2.09171033332589
H         3.10666317809832    3.74292110958363    4.30605388539589
H         4.82371975763195    4.39967017787132    4.31150443360850
H         5.57060329829319    2.27642769372116    3.72496521587820
H         4.01903126742554    1.60070946221556    3.94857637831433
H         5.97830937773615    4.51550262299173    1.75207270620764
H         7.36620662101867    1.75506365583273    0.69443686322736
H         6.53302603777923    2.10728740620608   -0.81530054407228
H         6.50263512432866   -0.47764030654416    0.51746500788675
H         5.54942683760800    0.09125767483497   -0.85978230557115
H         3.40676959345812   -0.92337717947621    2.32771790098827
H         5.10293724442125   -1.48399152694478    2.30979153328308
H         3.52344102649510   -2.87802289499776    0.61922363935038
H         5.10802813542488   -2.30179941397013    0.33598916110640
