36
 energy: -47.846601284578 gnorm: 0.127416401259 xtb: 6.4.1 (79825abcba525fcdf90b791dcacef51065a7a4e7)
C         1.79879570022143    0.15348863105883    0.41506541225253
C         3.16581786632625    0.25208267113189   -0.30081042469679
C         3.39952290606512    1.74340013100065   -0.45604525241432
C         4.15436063889121    1.77562209302871    0.94330161800921
N         3.41505327531821    2.27564111644828    2.09565495376526
C         4.11063157278946    3.53381002682471    2.49652768270375
C         4.15968212611758    3.55372844140934    4.06061553347042
N         4.60288082806079    2.36645100354381    4.80804638510511
C         5.46254512208908    3.48309979471424    1.82259638437080
C         5.37008213933805    2.55275458426427    0.88272417804450
C         6.37271530468212    1.85664924766967    0.07393060224399
C         5.90515182054620    0.38392896498947   -0.02270396726338
C         4.49185263507557    0.30572902294529    0.73338603478155
C         4.30768886268739   -1.08596836885597    1.33970167068082
C         3.81048476684634   -1.85829218953432    0.10706385104002
O         3.51795580075411   -0.95769127828591   -0.98955748208101
H         1.95749617650278    0.87542668820136    1.22345932140701
H         1.67096081865249   -0.83932467803361    0.84894042646533
H         0.96029832787563    0.61057483643971   -0.13069473018211
H         2.48251464915842    2.34214968767999   -0.43601042019944
H         4.05751407463178    2.00987168308633   -1.29555012616293
H         2.46779788941156    2.56639696552961    1.83990976966755
H         3.53466572839987    4.40140299387675    2.16421390343440
H         3.13107759745221    3.81758995519482    4.33171094401572
H         4.80670290974458    4.39244874367779    4.35253858456443
H         5.55668363776981    2.11061949601935    4.54807747738205
H         4.04609128106615    1.58964223281867    4.44465758757649
H         6.24558124072309    4.19923595100749    2.01114090726618
H         7.33776040312776    1.94800470684637    0.58644139042739
H         6.44540361629238    2.24386475126436   -0.94764649348104
H         6.59404422825787   -0.19752652027537    0.60728891931072
H         5.85327049896032   -0.06952947590686   -1.01761991467856
H         3.50518738047490   -1.08835610914062    2.08241157512753
H         5.21779234665977   -1.47240530449428    1.81886585438736
H         2.93990155824081   -2.45026771411144    0.41888711738727
H         4.57863805742654   -2.53598890782344   -0.27122003117344
