36
 energy: -47.852284526584 gnorm: 0.131490413722 xtb: 6.4.1 (79825abcba525fcdf90b791dcacef51065a7a4e7)
C         1.75727818504044   -0.06455253193700    0.56453784746070
C         3.16546147024727    0.08273983978224   -0.05697102791355
C         3.42271809241980    1.50263813686123   -0.52649352330431
C         4.11657393517017    1.81202434468466    0.87058707713553
N         3.29640601164129    2.43199317708201    1.90377441409560
C         3.93023148989443    3.75385758552020    2.18387607029128
C         4.13540785427255    3.86938455395304    3.73104437855639
N         4.64219321378499    2.64132495324953    4.36329743786484
C         5.29196206730257    3.63914035554286    1.53815546674855
C         5.36984689264244    2.52777291281490    0.81965151114813
C         6.41046864358792    1.72756082989717    0.17099895660237
C         5.90690146119024    0.26528964122200    0.24200616882597
C         4.47672493266834    0.33566083973034    0.96646801518114
C         4.26923635814653   -1.01237551770218    1.65791814385003
C         4.15553218645034   -1.89399698303209    0.40376226924934
O         3.57241949333291   -1.14112732529316   -0.68820860428344
H         1.54860682995825   -1.07450564971771    0.93376952220688
H         1.08675097496365    0.13215540318750   -0.27329672648495
H         1.54668325547819    0.75429992381829    1.26809322084547
H         2.57069701266132    2.13100304495741   -0.80760595446353
H         4.11194157446481    1.56896647039551   -1.38048383387685
H         2.29403716940055    2.53262907103740    1.72386757384175
H         3.42757705555774    4.69317915076084    1.93913081586242
H         3.20629017852889    4.10075515595121    4.26429001253250
H         4.94332069618061    4.60324696444887    3.85765215948569
H         5.60817917095907    2.43616843846913    4.10338334742185
H         3.96959254912427    1.89827722674740    4.16084667427272
H         6.13139219899639    4.29077747304365    1.71779908054458
H         7.41580044120893    1.79830065341636    0.60300484436747
H         6.47263245477241    2.10087430377569   -0.85643083051142
H         6.56181903290967   -0.32120008102007    0.90281405646897
H         5.90986818083865   -0.16786208383367   -0.76325239295266
H         3.35170521806962   -1.04911086865288    2.25156741141658
H         5.02113948650544   -1.37421701231569    2.37271363002408
H         3.49067471508572   -2.70934048971832    0.71802871612455
H         5.08386730674106   -2.35191525096175    0.05600406062309
