36
 energy: -47.840071772259 gnorm: 0.136906067030 xtb: 6.4.1 (79825abcba525fcdf90b791dcacef51065a7a4e7)
C         1.67188474810431    0.05123644359579    0.49352641947401
C         3.12043620641350    0.11652797343339   -0.04348787880969
C         3.45366479750896    1.52144855574652   -0.51028611837045
C         4.11825194221185    1.83596902660574    0.89981705681581
N         3.27517140526159    2.48445979117170    1.89640515907596
C         3.96720365953235    3.74898175369466    2.28317744678993
C         4.18407988440621    3.70950931691922    3.83255804321352
N         4.73881182659792    2.43999800223407    4.32785513866054
C         5.30778917050787    3.68386242336763    1.58818443433914
C         5.38733012390296    2.52316059212625    0.95265619182238
C         6.42396772559046    1.78965929203073    0.22372439667862
C         5.78201970562525    0.38541608228408    0.11031027344044
C         4.43460539232243    0.34873678918347    0.98113251966543
C         4.44169370642417   -1.03627779951736    1.62923840468004
C         4.10446287294488   -1.90100838252256    0.40383705806519
O         3.50795327766678   -1.12050042388460   -0.66115928434277
H         1.36715821739895   -0.85433328123188    1.02921881312364
H         1.02645100133247    0.08696789656500   -0.38533995660147
H         1.40964561212382    0.92879998206322    1.10260167239920
H         2.67661660114056    2.16145121167366   -0.94202602177373
H         4.27063266140493    1.54342677141573   -1.24568289892359
H         2.42797396468381    2.85300991527619    1.45633165377204
H         3.35212825899408    4.61052829089519    2.01058518153446
H         3.22082197373225    3.86370940754251    4.33205723979616
H         4.85009827095275    4.56715977699045    4.00037319724583
H         5.43501960889176    1.92324897934599    3.78837523041168
H         3.92789650749130    1.81883347311278    4.28237040125615
H         6.14596169986175    4.31992347593154    1.82150583580149
H         7.30778755730195    1.59001290357886    0.84124287774384
H         6.79318754095205    2.13783669213036   -0.74647585124497
H         6.48616247037132   -0.30843136164842    0.59229886915192
H         5.69371635053797    0.05365691029773   -0.92907050596645
H         3.60494002793559   -1.15470648249677    2.32310463027123
H         5.38314492005624   -1.45318898808633    2.01274191404020
H         3.38813068562606   -2.67049658954175    0.72060197712854
H         5.01187679231062   -2.28302810777047   -0.06848904356963
