36
 energy: -47.841489356298 gnorm: 0.131850831903 xtb: 6.4.1 (79825abcba525fcdf90b791dcacef51065a7a4e7)
C         1.77603056265486    0.15422103732363    0.68015928901778
C         3.10398581131265    0.08031430916847   -0.10852399010533
C         3.41320837599324    1.48026163448904   -0.60578912654778
C         4.09597050505087    1.83552606181282    0.78583337702884
N         3.19070108893312    2.54653558155246    1.67996180329620
C         3.88018997903919    3.69776692658800    2.33325247540818
C         4.09552204116105    3.35218808188875    3.84433849874997
N         5.11884390221765    2.36721611461038    4.22819825610281
C         5.22711441276702    3.65680015429526    1.64875147982999
C         5.30204193648731    2.62935279424927    0.81437182016148
C         6.34942198817650    1.91798332242141    0.07889122562864
C         5.91932674541910    0.43163499185784    0.13032795766924
C         4.47478571358007    0.36125993276565    0.82570603164327
C         4.34457310114153   -0.89668234779030    1.68534709799174
C         3.97097544949986   -1.92793491068539    0.60829788047138
O         3.47330523394544   -1.23156879336418   -0.56073255735102
H         1.36816249183644   -0.86232185460073    0.66730211910166
H         1.04311018669078    0.73473867859132    0.11793641898894
H         1.91336563260959    0.55610129537427    1.69479771103509
H         2.57818867676069    2.12820024403407   -0.89340742987844
H         4.19428029929695    1.51085336368590   -1.37891185235849
H         2.29312228623739    2.71044453363013    1.21657908692566
H         3.27287081326131    4.59923866543035    2.21749901921651
H         3.17646245042607    2.96778177621843    4.30118002550953
H         4.47762927005718    4.30657978032523    4.23220094797849
H         5.85306185870313    2.41133227999715    3.51985430339723
H         4.80715661651835    1.39709875123174    4.31317606491659
H         6.01479178959391    4.35313712287971    1.88586937460880
H         7.25853208513670    2.18538469467246    0.63056194106204
H         6.47507669482679    2.29143810120183   -0.94266724072803
H         6.65359921104713   -0.08270334136595    0.76739494313145
H         5.94245030861641    0.02942047163620   -0.88744550348895
H         3.50764661735125   -0.73380457084352    2.36993258690312
H         5.23716132593131   -1.23888972234318    2.22701178336332
H         3.24179873072841   -2.72289086764479    0.81306667058663
H         4.90843121469385   -2.31140989582865    0.20018679371559
