36
 energy: -47.822759703064 gnorm: 0.139022521873 xtb: 6.4.1 (79825abcba525fcdf90b791dcacef51065a7a4e7)
C         1.98039589099919   -0.66210420345117    0.67260633452830
C         3.24608016806889   -0.14700069591673   -0.05103745479129
C         3.14445435163718    1.31646017515838   -0.43923609454879
C         3.96698980289266    1.67761578180275    0.87301090406585
N         3.36156727083432    2.18431586718214    2.09825841823215
C         4.02637281459379    3.44283887367767    2.54733600902238
C         4.68066669746018    3.55752557244227    3.96434698024899
N         3.71679354582469    4.08112886794855    4.94490491190711
C         5.04519683009163    3.59548619807195    1.44138766793021
C         5.00523179735636    2.62448140647690    0.53972027245219
C         5.99552952846656    2.02853939775909   -0.35924952780003
C         5.85771072177235    0.51875803745996   -0.04552159757608
C         4.57448843172583    0.28145689708415    0.88841136987744
C         4.79058261016301   -1.15198896621412    1.37512804768953
C         4.43600130304778   -1.94645655135147    0.10777433929984
O         3.84417412307416   -1.11827965734983   -0.92329170933836
H         1.35691453973693   -1.25105343956292   -0.00878262976624
H         1.46489551699907    0.17737628410664    1.14143406054338
H         2.20057018350183   -1.42386815763026    1.43490466563134
H         2.16534032926421    1.80696536964295   -0.41584788867420
H         3.67712583465644    1.62792728786432   -1.34916866419376
H         2.35574809964196    2.07445877633070    2.25154448418781
H         3.41169468039921    4.34649169490207    2.56899458288322
H         5.47786639420940    4.30722956985817    3.90468560787119
H         5.15054923840263    2.57167140129126    4.08521336577162
H         4.09481094618657    4.84949925895284    5.50121704294477
H         3.45902922098109    3.35248344817748    5.61433100574287
H         5.64465370109139    4.48788272925313    1.36506205953025
H         6.96049916036060    2.38415447355581    0.02114074272140
H         5.82049084810283    2.29840020248199   -1.40585158924454
H         6.74061077556557    0.17641372479662    0.51380136386274
H         5.73689740342852   -0.03071628943003   -0.98448705447778
H         4.11411141024487   -1.43179795674621    2.18736326432941
H         5.80127687672830   -1.37302647095268    1.74507368365213
H         3.67152645356096   -2.68820884337504    0.37416813723166
H         5.34827348727678   -2.30324997610624   -0.37481135227525
