36
 energy: -47.843222901826 gnorm: 0.142763157831 xtb: 6.4.1 (79825abcba525fcdf90b791dcacef51065a7a4e7)
C         1.72205573875215   -0.10974909665396    0.23938735886892
C         3.17711899978240    0.11349951540717   -0.23379297249285
C         3.40943511920945    1.57640056218808   -0.56347991554279
C         4.03836034289275    1.82800323346803    0.87531795152278
N         3.23545878578672    2.34504631427632    1.97646663926397
C         3.98291890177066    3.56596413667834    2.39858070076050
C         4.13142298496944    3.58672931469368    3.95636404562131
N         5.20600496183178    2.73501892501380    4.48981386243963
C         5.31727779773573    3.53505723005103    1.68938649383664
C         5.28243002811739    2.55700773528341    0.79515136775717
C         6.22529923741173    1.89262969105727   -0.10683681787638
C         5.83048461703186    0.42080837712816    0.16651724745484
C         4.40233493283567    0.34959495616846    0.89488475117856
C         4.26882913467771   -0.96596606970944    1.66289012165088
C         3.96691493318406   -1.91516319701742    0.49200810352061
O         3.59534634995466   -1.17892194384158   -0.69925978576389
H         1.62595798824928   -1.11861942103332    0.65511204358836
H         1.07756768586202    0.05315259433428   -0.62569399779226
H         1.38499691958994    0.56196999889000    1.04253404511868
H         2.50268078920536    2.13586756790553   -0.81764499706199
H         4.16947677803239    1.73557596807081   -1.34176509812212
H         2.27125912890738    2.64179296534233    1.80471728060790
H         3.37497903849008    4.45689665442251    2.22099946061208
H         3.22189656777432    3.21424656753261    4.44129828765612
H         4.37993868634913    4.61931733989134    4.23798195293385
H         6.07815469071975    3.26607722392163    4.47955068290802
H         5.28413091847086    1.92618840347841    3.86917917808951
H         6.08285180076224    4.20262376153666    2.04966014483819
H         7.28401476983815    2.03417358374307    0.14097763260746
H         6.06277221169821    2.08476962812510   -1.17243828696166
H         6.50463539636773    0.22723958863678    1.01363362591832
H         5.92236107270851   -0.34427027874918   -0.61090632034794
H         3.45892527215185   -0.82100076400604    2.38307981461362
H         5.12597816085176   -1.30523476421176    2.26073002997233
H         3.19416835911887   -2.63448023611792    0.79371929972010
H         4.85539299674082   -2.48497890225862    0.21210128074072
