36
 energy: -47.836874240329 gnorm: 0.150902940382 xtb: 6.4.1 (79825abcba525fcdf90b791dcacef51065a7a4e7)
C         1.80044962963770    0.26320521330974    0.66983993174929
C         3.15852181638999    0.20898782160976   -0.06748568156532
C         3.45028646977846    1.58457487582132   -0.63790426633557
C         4.09700270596280    1.90363850381978    0.77946889253116
N         3.19682355032284    2.53012220074516    1.73952543249232
C         3.89871707197038    3.72279586343217    2.29844604760969
C         4.20133536516465    3.32816344225628    3.78231295945467
N         4.82342761896422    2.00575838232216    3.95246524507962
C         5.25718483333244    3.69381253834932    1.63651657264475
C         5.33984952616340    2.63652509684916    0.84105352152708
C         6.41514822003861    1.81316188385427    0.28446662927286
C         5.86924233529990    0.36615137015322    0.21371098309708
C         4.45870961074819    0.43760736090964    0.97561226787749
C         4.28346756411762   -0.89226617780342    1.70983530596171
C         4.00013900399118   -1.85455931722328    0.54501389569354
O         3.49161981771547   -1.09160351119908   -0.57683290917959
H         1.62503885644003   -0.81098232007370    0.79326327670586
H         0.97822612578988    0.60198193095894    0.03782220408125
H         1.89048021551772    0.88440337308202    1.57309356593362
H         2.55880523906783    2.11915099846849   -0.98329711926536
H         4.18318009605251    1.58957638432714   -1.45739793788648
H         2.34384964282607    2.72293302444538    1.20802107249592
H         3.30427022559975    4.63976640716366    2.32461277745367
H         3.19177790650631    3.33528949344625    4.20879375739564
H         4.77607529099207    4.10343851701894    4.30760269344209
H         5.83421338599716    1.90911091788012    3.84409181552475
H         4.25931861619786    1.43594467941100    3.31796444522335
H         5.92833231485978    4.48818669894539    1.91949445933168
H         7.30630824596070    1.84905411179662    0.92233088393547
H         6.84038856983245    2.12334278201438   -0.67563635578047
H         6.43505209538560   -0.28313886266700    0.89769623577414
H         5.91891683326203   -0.08201244918026   -0.78371353895487
H         3.52318032223369   -0.81953116643512    2.49233472289468
H         5.27337432157314   -1.12434183219316    2.12630349024125
H         3.26674861468439   -2.64966065941077    0.73352466679837
H         4.88765340313417   -2.35793870724548    0.15596580087980
