36
 energy: -47.840508141939 gnorm: 0.124299440460 xtb: 6.4.1 (79825abcba525fcdf90b791dcacef51065a7a4e7)
C         1.71832057311419   -0.15809447311243    0.32571882836584
C         3.15906131269459    0.15834429293534   -0.13804976335489
C         3.29576051227327    1.62434165397253   -0.50534910792590
C         4.09805873575821    1.92484185421408    0.83442972963149
N         3.31616190576419    2.59448250682635    1.86628806720403
C         4.16603063357167    3.72459939100283    2.34386131288632
C         4.21981365938670    3.45843874769400    3.88510739975495
N         4.61904547928555    2.10465878517590    4.30055834305449
C         5.49446739701406    3.62557306787548    1.62980608349975
C         5.35843934078462    2.62677853827476    0.76878490054406
C         6.29764163192059    1.83546945373062   -0.02853071088695
C         5.91445644743812    0.37532845966886    0.31500444094767
C         4.43176626212929    0.44195836551766    0.92524404544459
C         4.19365738438096   -0.83071744786578    1.73885162957692
C         4.04990810368587   -1.79362016555829    0.54921026916788
O         3.66936094980764   -1.08094314864168   -0.65349871930052
H         1.42223064547716   -1.20777954882061    0.22387029713177
H         1.05677080457761    0.48042133691669   -0.26157754573381
H         1.53258710289710    0.07872031847497    1.38367989928945
H         2.34477330845344    2.15464273265659   -0.62455792240788
H         3.91754304103546    1.93517889867030   -1.35710884893844
H         2.40481919277733    2.91257489648644    1.52642179868887
H         3.66963521082659    4.68938646890803    2.21095457536709
H         3.15936162964348    3.53611042222132    4.15072275796715
H         4.77945247925622    4.23312474152227    4.42729992524443
H         5.61932147293551    1.99352263386236    4.47338800500163
H         4.34900164066505    1.44300250286939    3.56926826460294
H         6.37845267807592    4.23153695131469    1.74348771363745
H         7.35609894927760    1.98209619429265    0.21742447090179
H         6.08333955517108    2.22405444767145   -1.02948804724926
H         6.66938825724554    0.00585088599530    1.02431298221283
H         6.09663221367527   -0.21628320789897   -0.58775890740026
H         3.24992656080782   -0.85138168345512    2.29073705897338
H         5.05018409636343   -1.09487642417376    2.37430601672383
H         3.30219494768252   -2.56909751400754    0.76168105081832
H         4.96790158225203   -2.30435453773397    0.25110053924495
