36
 energy: -47.845203722774 gnorm: 0.131633775341 xtb: 6.4.1 (79825abcba525fcdf90b791dcacef51065a7a4e7)
C         1.72904947747200   -0.02925939307310    0.41948803661063
C         3.16155934092571    0.12761243830534   -0.14109676034925
C         3.45199952729158    1.58556343258761   -0.44567360998464
C         4.14118747785948    1.72795755427221    0.98041676651020
N         3.44174117472344    2.33017970954256    2.10851956518959
C         3.98871777177200    3.71592813720742    2.19815775535457
C         4.13446556219403    3.97280179225945    3.73502047112623
N         4.60211217866398    2.81394811749384    4.51159660041741
C         5.36897181977868    3.56653672899765    1.60065786178811
C         5.42344943031595    2.39228680194127    0.98777888926361
C         6.42510119890010    1.67488029904898    0.19657439416364
C         5.84177148669441    0.24418679152686    0.09807869571308
C         4.46301072918112    0.24093668086184    0.91918167485194
C         4.24975470985462   -1.11208618298982    1.59904015912469
C         4.00290558644360   -1.89039090016577    0.29658122580366
O         3.67062904968607   -1.03020939048108   -0.82096681374481
H         1.43147117981501    0.77870727870478    1.09662769796648
H         1.63586730217065   -0.95989151599722    0.98118945606572
H         0.99879396989424   -0.13653787947329   -0.39603510561261
H         2.65940037047347    2.31758353642593   -0.63472307473569
H         4.19865535258791    1.71932169594820   -1.24150128980255
H         2.44527566456994    2.24001347553781    1.89366179682909
H         3.37114584611273    4.52309020960850    1.79568918152789
H         3.17940507592067    4.29482613873060    4.16548844976827
H         4.87560475203041    4.75959674898238    3.93243653362911
H         5.48953306643760    2.40267000825444    4.21815516316173
H         3.99316990304179    1.99418389888942    4.45988767035420
H         6.00624052946449    4.42882884701293    1.70968292940237
H         7.38873456531886    1.83519751298016    0.69460479823092
H         6.47331066356546    2.17563783370738   -0.77592595471509
H         6.47379784797428   -0.52210980642453    0.57018721921542
H         5.74770417262710   -0.00907941245213   -0.96266705072769
H         3.45385357276408   -1.12444622004240    2.34872071133564
H         5.15863509855327   -1.35722213370720    2.16566612307420
H         3.20490058140624   -2.62728042129659    0.45709832894380
H         4.88495574641976   -2.44676545815883   -0.02724879525876
