36
 energy: -47.846568559754 gnorm: 0.145237451192 xtb: 6.4.1 (79825abcba525fcdf90b791dcacef51065a7a4e7)
C         1.84751421842801   -0.01505269908021    0.77546979613632
C         3.16489472241297    0.07083608180180   -0.02956460003087
C         3.39711476365640    1.48552417523439   -0.52703336879578
C         4.17528987884899    1.83400656536116    0.81535019989885
N         3.35684798498237    2.56975879843418    1.77103550462241
C         4.06391857648022    3.80865569007166    2.21001489525217
C         4.12453807585208    3.84855004439779    3.77331503223037
N         4.31430559788478    2.49018011109790    4.30578580828199
C         5.41617392653960    3.61915369729480    1.56200272252725
C         5.42701001443852    2.55308680062904    0.77407153107986
C         6.46659087487467    1.75724989742515    0.11840511484823
C         5.91097173776250    0.31345981732610    0.17854313521693
C         4.50395041527121    0.35325730732199    0.94919820793048
C         4.35641893974506   -0.99421674431700    1.65694463531036
C         4.11916610250157   -1.92432226109327    0.45623364099367
O         3.44692891070416   -1.21144209125380   -0.61106790943154
H         1.74239632071937   -1.02840465959065    1.17789886097685
H         1.08987470545560    0.04663513940594   -0.00711856370814
H         1.57312358860562    0.67464145834269    1.58719114102490
H         2.51960445212984    2.11269286705917   -0.71793049657932
H         3.96816875159576    1.54703848746605   -1.46449872263109
H         2.35427051375119    2.70543422323394    1.61719144996488
H         3.54468911461676    4.66002661518366    1.76229284573921
H         3.20561700187882    4.30980435355650    4.15275071887624
H         4.99021407051897    4.46288802613191    4.05704138878894
H         4.85699073965832    1.88204543709191    3.69061229296145
H         3.34498629577278    2.17006744824198    4.36448726873755
H         6.25815776766875    4.27445366529541    1.71428822315796
H         7.43159727738284    1.76877490087095    0.63893855335669
H         6.66619181471136    2.06374511583047   -0.91361204457586
H         6.58975771990194   -0.39096957428638    0.68111963412464
H         5.90992888274383    0.00089344387107   -0.87049223387976
H         3.58742000529133   -1.06670041474017    2.43090792009931
H         5.30807861810231   -1.21075539376885    2.16159809656852
H         3.55280875226467   -2.83406662972556    0.69537471404887
H         5.00000766665258   -2.32324043889425   -0.05112566341380
