36
 energy: -47.837497674105 gnorm: 0.142445418416 xtb: 6.4.1 (79825abcba525fcdf90b791dcacef51065a7a4e7)
C         1.76979051736369    0.06355989454135    0.53612531694913
C         3.18054272026557    0.08977621602266   -0.09636150333167
C         3.51361178648860    1.46021271456856   -0.65646195848908
C         4.09058312072492    1.86388042874101    0.76942254747790
N         3.20062290949514    2.65653425009584    1.60857907076362
C         3.98582810298055    3.73947506748581    2.27055282455077
C         4.07686382447865    3.61156127312834    3.82764118892720
N         4.86687761268021    2.39726130798576    4.08466166782429
C         5.34079662057280    3.63471414134708    1.60910683639196
C         5.36067139426874    2.54617239783330    0.85271176418623
C         6.44495869075127    1.73790172501408    0.29146066934819
C         5.82229591470473    0.32090331514720    0.25588563402310
C         4.40889222520853    0.39477114168072    1.01221601843018
C         4.26009699222825   -0.90823365546478    1.79859720932469
C         4.07092422585976   -1.88549606762961    0.62716051948281
O         3.53524450977083   -1.22672426327766   -0.54684992793073
H         1.29458187091319   -0.87511703540337    0.23125898013600
H         1.09932839759853    0.82205395865211    0.12938846862936
H         1.98894498316107    0.31537671219034    1.58418037138787
H         2.59392199368857    1.97565247985746   -0.95361372051962
H         4.18916203702796    1.32551106476630   -1.51332559568981
H         2.24112731540331    2.88620472205228    1.33681244997383
H         3.46356882090769    4.69052006972645    2.13771692574157
H         3.06803018308484    3.46389207728288    4.22962553329787
H         4.56062293398059    4.50892514344162    4.23754598441440
H         5.72241619593694    2.54416351322688    3.54684490274159
H         4.33649741597334    1.60525840709770    3.71462634407764
H         6.09085313365573    4.39777163990192    1.73835159768374
H         7.29877351554330    1.73934033417357    0.97944571288653
H         6.64496128917205    2.09377695601988   -0.72450736849143
H         6.45881868729785   -0.40981689642298    0.77592510370488
H         5.77976458315796    0.03632005020405   -0.80022869920395
H         3.28494695009362   -0.87669142514733    2.29227715548252
H         5.02432478121564   -1.22783962237798    2.52042003033022
H         3.47393522433477   -2.78787970323106    0.81395405563471
H         5.08300273586642   -2.19670058033000    0.36017760528759
