36
 energy: -47.841746346685 gnorm: 0.147776111217 xtb: 6.4.1 (79825abcba525fcdf90b791dcacef51065a7a4e7)
C         1.76841090334834    0.14206602605566    0.44482885641904
C         3.19288102586045    0.12857103152828   -0.15654569778037
C         3.45500046802469    1.57197155654098   -0.54465906346316
C         4.09316304335234    1.87256011635318    0.88060756328724
N         3.15792423023035    2.55784157187580    1.76391401124943
C         3.94985257329744    3.68708182631958    2.33416225572111
C         4.22824337077954    3.43104094598805    3.85275210717277
N         4.84454225339848    2.14630012769813    4.21925231350812
C         5.28802899892534    3.67924604658217    1.63156164723178
C         5.36026802125458    2.56439771108735    0.91787679419662
C         6.39457221717104    1.80600526499626    0.21145011138842
C         5.83316326317568    0.36458485957211    0.27458555169564
C         4.39702010047623    0.38454736191071    0.99033427109243
C         4.22136648227683   -0.95205428302790    1.71213646627868
C         4.04434148832254   -1.79731014461404    0.44040666892924
O         3.54594550262380   -1.13214456706859   -0.74634930564610
H         1.58894223746522   -0.81805234925002    0.94065625869455
H         1.10139096588779    0.31774046189461   -0.40044651156384
H         1.68410550260438    0.90112264482575    1.23640034760337
H         2.60131737046432    2.21199344803449   -0.79245678661143
H         4.09814050974553    1.64598103019788   -1.43326548777923
H         2.35446047553236    2.92139333657985    1.24476718115414
H         3.36156315062115    4.60332873262574    2.23775781335057
H         3.24240466466914    3.46219495590748    4.33055370797474
H         4.91428510353746    4.19544826889050    4.24305313472868
H         5.83824974776088    2.14455540103688    3.98405927560542
H         4.44913837966963    1.48641133758653    3.54567941784999
H         6.09095770896671    4.33075940475460    1.93550476398198
H         7.39386488381890    1.85078861726396    0.66059794698033
H         6.35364191484031    2.19787484396310   -0.81011836162958
H         6.37072020556994   -0.26554497433628    0.99813457739065
H         5.72577946403809   -0.13452502767755   -0.69367681795983
H         3.45082723583662   -1.02135846902244    2.48485796830924
H         5.16380685948937   -1.15353302952584    2.23980362499877
H         3.33290344196866   -2.60445150720047    0.65941037515733
H         5.06490867820229   -2.03643775489489    0.13431580737684
