36
 energy: -47.844873623474 gnorm: 0.138922327358 xtb: 6.4.1 (79825abcba525fcdf90b791dcacef51065a7a4e7)
C         1.80023236156963   -0.12175298317794    0.41591418159810
C         3.20287285389274    0.11178071987395   -0.19154801604301
C         3.46045888176008    1.57895878216726   -0.48099870503665
C         4.02963682664176    1.74478697697813    0.99464611125534
N         3.27755262803828    2.45301593313883    2.02289415612341
C         3.92824818274350    3.77497929277319    2.26064490813969
C         4.18627986192503    3.93189272142227    3.79621367316137
N         4.94591944276452    2.78727411396793    4.32299794292493
C         5.27396220867743    3.55966468487689    1.60710171729696
C         5.29726284388127    2.43161252123427    0.91110816496667
C         6.44918332084111    1.74939546203388    0.31811379862274
C         5.95292029293347    0.28463851117134    0.38931143881339
C         4.44303938097614    0.28060382396452    0.93286040325782
C         4.15865162505925   -1.10436205560724    1.51539796756723
C         3.93966086145965   -1.95057728819621    0.25086053831655
O         3.56307329109801   -1.10492374903573   -0.86371807039113
H         1.72421669754637    0.31407363178231    1.41799097667949
H         1.50955259975427   -1.16276950412270    0.56443167317963
H         1.10500006245033    0.48135173737848   -0.18639515422060
H         2.60804055682868    2.23783211978631   -0.67867408643152
H         4.23576879740781    1.65648254754752   -1.25663557877043
H         2.26052965225251    2.48533087049331    1.91400237185719
H         3.39152008453060    4.63854182022193    1.85931033378174
H         3.25023288363632    3.91627573723696    4.36605144195094
H         4.72725561017406    4.87650097858527    3.94577038731876
H         5.81328150275136    2.76651846225370    3.78445763992403
H         4.27182647033868    2.03518322721176    4.16344904568370
H         6.09709623577499    4.23508125528425    1.77386066950906
H         7.40683994008409    1.82966317168304    0.84610636518681
H         6.53553908739034    2.11044249961687   -0.71194784739712
H         6.53407346529809   -0.36854349454350    1.05652098925489
H         5.93682224799021   -0.19215120013559   -0.59587202638481
H         3.21535002345867   -1.15223608511365    2.06632680093578
H         4.96085484110911   -1.41958272736704    2.19681281177255
H         3.20201080734621   -2.76302545230690    0.28806671177697
H         4.86518464524755   -2.44067554946791   -0.05839738002544
