36
 energy: -47.838620710494 gnorm: 0.142318881286 xtb: 6.4.1 (79825abcba525fcdf90b791dcacef51065a7a4e7)
C         1.84839640588539    0.14090072016336    0.53959981923837
C         3.26140002169211    0.16324461194542   -0.08799089133622
C         3.55256302081056    1.55666668825244   -0.61367392411304
C         4.21726274541747    1.81386004623987    0.80795041422274
N         3.30171611334592    2.40788320589819    1.77408883100047
C         3.95173151104149    3.65760272731013    2.26724015078655
C         3.93592274999293    3.70618151422807    3.83138966568774
N         4.51117929699721    2.50732397460363    4.46109292746185
C         5.34694307824473    3.49282688346562    1.70987242009691
C         5.45864700306769    2.55138133889167    0.78323661376568
C         6.39248972575440    1.77177862091541   -0.03171144285092
C         5.96124597341472    0.29181512916794    0.11180079025834
C         4.58488142393210    0.34173173245426    0.93540920992627
C         4.34480865639427   -0.93178502201857    1.74712138958547
C         3.89873460794174   -1.89720946260869    0.63713690534455
O         3.45814129500792   -1.18390210345636   -0.54451603492158
H         1.71630627177490   -0.85056670713231    0.98617079849070
H         1.20368392182499    0.30060305036491   -0.32591073809916
H         1.81546840468482    0.88883896157066    1.34543100656568
H         2.73887103682048    2.23552647281292   -0.89091261889817
H         4.21045189053322    1.44206634931835   -1.48704490876227
H         2.38818279727506    2.61655164532073    1.36280828565402
H         3.41824825055107    4.55600551086367    1.94606307378825
H         2.94411638384726    3.92629984948302    4.24249907995198
H         4.53302904636598    4.57101475524167    4.15206746214389
H         5.50250919776566    2.44572425662218    4.22393496781255
H         4.11724310761215    1.73329382193262    3.92147316566472
H         6.11777161046161    4.24225436720642    1.78555224932474
H         7.44013960518821    1.95838085397842    0.23273988353144
H         6.33181559726713    2.15122198975964   -1.05698242241952
H         6.70973081611484   -0.34018543363025    0.61170075720457
H         5.78774964574330   -0.21422570028470   -0.84318385158413
H         3.62303651531029   -0.87028751289880    2.56620339648453
H         5.34711588888609   -1.21531421064374    2.09670911957342
H         3.04665115834368   -2.53688073369845    0.90238837381216
H         4.61674360259938   -2.66495384406459    0.34139605946712
