36
 energy: -47.847214577245 gnorm: 0.132069769964 xtb: 6.4.1 (79825abcba525fcdf90b791dcacef51065a7a4e7)
C         1.71482287474791    0.03132518712464    0.36521948857038
C         3.17224344955145    0.08988584487856   -0.14804902103923
C         3.51684306879376    1.49560853821282   -0.60405179571256
C         4.07514526265563    1.87321295759694    0.83633138505195
N         3.23671729442767    2.52239336018416    1.83638949128211
C         3.99899965724763    3.70557777593093    2.33289475214281
C         4.25394816120104    3.68480755037750    3.87683240008378
N         4.73310873887562    2.35814011284297    4.29523934164748
C         5.32782557624084    3.65852512000283    1.61426199460399
C         5.34593548130349    2.55817455701626    0.87510551898044
C         6.33366379852057    1.79306524103577    0.11157182013534
C         5.84469968097882    0.33234321986414    0.26669846134576
C         4.39982032298351    0.39090835613245    0.96246842410558
C         4.22852648380747   -0.88993760639463    1.78005564819733
C         4.15292101886754   -1.83141915646395    0.56721255786909
O         3.53231515408895   -1.22670367259600   -0.59399419217471
H         1.52229667503418    0.73111208054048    1.18565418140522
H         1.46830905961739   -1.02261824049274    0.50197383538376
H         1.19543069981900    0.34499338598960   -0.55222468670618
H         2.60697858227791    1.97029111093370   -0.98697437596656
H         4.29236724702364    1.43601566875499   -1.38105816305197
H         2.38448027205527    2.86455616814326    1.38488749215009
H         3.45046178491666    4.64059317973583    2.19239877658461
H         3.33415203454335    3.97981606368261    4.39460453331696
H         4.94624326450662    4.50627536633057    4.10753751179691
H         5.61379258182651    2.10601084097009    3.84401855500261
H         4.02365288580025    1.67927180654791    4.01009358204333
H         6.21023581163722    4.17155044373780    1.96024307933686
H         7.36990601226069    1.92910023605685    0.44326716871855
H         6.33092269032490    2.09765270762347   -0.94012121250592
H         6.46955619886647   -0.36086690419052    0.84856474475690
H         5.77203357282581   -0.18107551480113   -0.69730095152209
H         3.26443355525598   -0.80250103448796    2.28849646526722
H         4.96256640241642   -1.27770201575651    2.49980867166382
H         3.56584693206568   -2.73929612308554    0.75875195770952
H         5.14893594217732   -2.10506724982997    0.21294990623987
