36
 energy: -47.837090203821 gnorm: 0.147462040822 xtb: 6.4.1 (79825abcba525fcdf90b791dcacef51065a7a4e7)
C         1.90251431656740    0.05874439623678    0.74795612425168
C         3.23017888219997    0.12211586389330   -0.04213216477049
C         3.43252567329779    1.52556554820455   -0.58262127760999
C         4.13633606033625    1.84142615289486    0.80801641265301
N         3.33293309657392    2.56986266208469    1.78189363746161
C         4.04118850952975    3.79459206124474    2.25721396904046
C         3.90798451166506    3.68785075419629    3.81286065342669
N         4.60203765581973    2.47161547639916    4.26426701402162
C         5.38803221528175    3.50258127036086    1.63659567334031
C         5.40157443769319    2.53351476583867    0.73206355387017
C         6.47753527390504    1.78707555549992    0.07699103456509
C         5.83054433138099    0.38344799907041   -0.01296129060008
C         4.55508706074465    0.38546410221058    0.96090050428613
C         4.32586437276987   -0.93490293348174    1.69740899004644
C         3.98599119359352   -1.93721679062774    0.58253445087168
O         3.61336438201411   -1.15382196106277   -0.57792898206131
H         1.87081811820593    0.75979437331671    1.58903008059483
H         1.77840389462260   -0.93786268024445    1.17414680913811
H         1.10005383046858    0.22831317253751    0.01504181483361
H         2.49456283946447    2.00884535029179   -0.87668419079018
H         4.07651936226461    1.62056612480805   -1.46860941746075
H         2.40276508709508    2.65845663279539    1.36454968400745
H         3.59008507214444    4.73624431103437    1.93366572772682
H         2.86520761228150    3.60684329554131    4.14027026338036
H         4.39312753650100    4.54214494932214    4.30492204008871
H         5.18658453936615    2.18161278974007    3.47878831849284
H         3.89428382790954    1.73396525217290    4.24294672520024
H         6.22487457042540    4.11896487477876    1.92174799903558
H         7.35660821109137    1.75021414771516    0.73135886519694
H         6.83237708432832    2.18637712711346   -0.87877296942943
H         6.43692359638917   -0.48840748663980    0.27291721827226
H         5.58416775489262    0.14608532539961   -1.05273606532934
H         3.58908819014574   -0.77870291440027    2.49012257388734
H         5.20397938288328   -1.40420275719409    2.16205075323068
H         3.20772289635421   -2.63589259604428    0.91680155313340
H         4.89175894019796   -2.49450220219506    0.33464576958596
