36
 energy: -47.829969861316 gnorm: 0.137682166325 xtb: 6.4.1 (79825abcba525fcdf90b791dcacef51065a7a4e7)
C         2.03134577851687   -0.45335334863796    0.77268532363179
C         3.24365640532614   -0.10681439187133   -0.12239140218042
C         3.18547375749620    1.38590610852253   -0.38911972942702
C         4.09371195027185    1.62861623813769    0.89352804314896
N         3.31386544463786    1.91666068902390    2.09076766042309
C         3.85748308718638    3.21985134640536    2.57418383903484
C         4.19026371489236    3.20035812747498    4.10325240239100
N         3.92487496489936    4.51624561114482    4.70551036950542
C         5.17391201528947    3.39600207906622    1.85278857248549
C         5.18788627878425    2.56807764377060    0.81751203908293
C         6.04947483515867    2.20539261480687   -0.30947862951533
C         5.88013503594214    0.67127257568312   -0.43055202195327
C         4.71612910535748    0.27055606096658    0.59887430741994
C         4.86385348024871   -1.08919064760374    1.28270414407493
C         4.43145852327767   -2.02473367293206    0.14214028485652
O         3.71167404572944   -1.25265812526310   -0.85035315544077
H         1.12237284550895   -0.26229193552291    0.19204355583786
H         2.07477599002231    0.18854749338673    1.65378956689701
H         2.05025234309344   -1.52655341721219    1.01298501459540
H         2.18788631493668    1.79783566619965   -0.20219740356620
H         3.72847220093734    1.70374327875600   -1.29070731430980
H         2.32460532097308    2.12989312483876    1.93866991166067
H         3.06734774789529    3.97058803867991    2.49071351908646
H         5.26776068733383    3.00013768589287    4.09583851565734
H         3.71216440787388    2.43951986021493    4.73559164498045
H         4.81219702124995    5.01608183819225    4.78032155182199
H         3.49686794171894    4.32029429086574    5.61320577925071
H         5.99844755491737    4.04512569599034    2.09840087964121
H         7.10555951802748    2.49856965531313   -0.34199989051440
H         5.72589407443387    2.65054864183189   -1.25603601719075
H         6.72982544819633    0.10633511516974   -0.02015442634190
H         5.71274967586203    0.32415422276601   -1.45508363798218
H         4.09173625646580   -1.12505105892342    2.05612603246314
H         5.84736108191076   -1.31480099949643    1.71748342048395
H         3.81840599137604   -2.84784159150851    0.53232467951841
H         5.28092063798610   -2.41298349348535   -0.42363990925967
