36
 energy: -47.839975663084 gnorm: 0.148830412258 xtb: 6.4.1 (79825abcba525fcdf90b791dcacef51065a7a4e7)
C         1.65590435185491   -0.12251519687752    0.31366525676095
C         3.12440596114530    0.13653680923679   -0.09541143784009
C         3.45182663425877    1.57378883836362   -0.45575299122970
C         4.14951017827709    1.84586089297439    0.94717416965851
N         3.33965576416150    2.50110732333064    1.96663522240226
C         4.04540786830196    3.77313064038282    2.30038346778817
C         4.16389909981088    3.79464497595350    3.86072656294314
N         4.58381015909411    2.54329725185881    4.51073371674333
C         5.39213087298025    3.63653541268610    1.62799650916436
C         5.45200598589690    2.46673984227926    1.00715439112723
C         6.38672313041202    1.73879096094892    0.14670246801295
C         5.78103342819133    0.31808475817049    0.03903219783646
C         4.44401931549695    0.35208684672171    0.92584627568410
C         4.33124113847411   -1.01750820628702    1.59655286467943
C         4.02123731171413   -1.92254940721130    0.39326980313051
O         3.62280732838472   -1.06465553738482   -0.70422973353740
H         1.66831971366198   -1.18950695405695    0.56116388187329
H         1.01269415490534    0.18835148457814   -0.51090136453650
H         1.49240039840721    0.46806585182654    1.22708754176831
H         2.54584791523406    2.18374758967244   -0.53917665772754
H         4.12642606073524    1.79865950315522   -1.29424971460492
H         2.32872723614130    2.63579823097247    1.88225941244731
H         3.47099966176890    4.62830889047321    1.93485357583965
H         3.22377306989529    4.19274393731947    4.25925283138611
H         4.92867585456628    4.51947895443516    4.17223732105337
H         5.56371974314273    2.41975517124048    4.25133448656565
H         4.13647518598325    1.70727591468792    4.12803587668774
H         6.25176411423066    4.23771466463947    1.87530182859522
H         7.43972344827036    1.61494051697180    0.42630335760642
H         6.52564271334078    2.17491909332101   -0.84794967457351
H         6.44976561036566   -0.43495356539495    0.48094267530012
H         5.71520353910850    0.01494402221390   -1.01070403392266
H         3.51649744294253   -1.02014357468622    2.32581150850119
H         5.25385311889562   -1.35367660153995    2.08950133851513
H         3.13852002565375   -2.55076721171385    0.57141721056360
H         4.84201359701645   -2.53332988094879    0.01155716149724
