36
 energy: -47.843059101152 gnorm: 0.132107177313 xtb: 6.4.1 (79825abcba525fcdf90b791dcacef51065a7a4e7)
C         1.80338196904725    0.05784238632168    0.66105667553783
C         3.11493167449425    0.12597583997605   -0.15511964963443
C         3.48151097010151    1.54250536440365   -0.55737254724463
C         4.14683881899089    1.76504139772735    0.86979474867569
N         3.26591458033427    2.45767510122796    1.80185890060280
C         4.02060022439570    3.64149921480977    2.30834399000899
C         4.02235559753011    3.72785196217223    3.87094233975908
N         4.85202193092454    2.78800370750244    4.64103629937755
C         5.38283270603041    3.58334203827412    1.65614344319376
C         5.40532899991856    2.47027059663364    0.93640929470845
C         6.44391110557200    1.74373585748980    0.20328078016993
C         5.86124877326184    0.31379164183466    0.09092854026163
C         4.45138517061762    0.27318978483720    0.85632909977291
C         4.34235999350841   -1.11417681800387    1.49011449758300
C         3.95902511248236   -1.95690967961795    0.26294389921509
O         3.35137808769649   -1.14792799877632   -0.77414205431766
H         1.39848516508300   -0.95028543016264    0.52099242994230
H         1.09500656566913    0.73853003235965    0.18657151430679
H         1.87489646164887    0.32674107454097    1.72521782273501
H         2.63841136514629    2.18978010317938   -0.82199495900079
H         4.10329677632548    1.57387321915100   -1.46353276927383
H         2.38081879806620    2.75670245107149    1.38421620757421
H         3.54701669100209    4.57654710918840    1.99803652553247
H         2.95643270113392    3.64733886443181    4.11274579691109
H         4.27502556346039    4.77185149640728    4.10230690742878
H         5.85937747823979    2.91870816659710    4.53651579440286
H         4.52173365941725    1.84061698521201    4.44389184014748
H         6.19468187876540    4.29034401319823    1.60520510796348
H         7.27153880277851    1.76127046752048    0.92234274339735
H         6.67461228134133    2.21376823745352   -0.75832502333420
H         6.52145184243786   -0.35924193030123    0.65724292567188
H         5.68051246122818   -0.12333334738849   -0.89620372172489
H         3.51826229746579   -1.10426686738523    2.20872225816925
H         5.25247606805297   -1.35446309970773    2.05683436470176
H         3.33665939302192   -2.83338948898129    0.48661317040577
H         4.82585486148635   -2.35041023610863   -0.27202760507365
