36
 energy: -47.847595616423 gnorm: 0.138932860960 xtb: 6.4.1 (79825abcba525fcdf90b791dcacef51065a7a4e7)
C         1.80268228364427    0.14939929135628    0.44965768402387
C         3.19990047334032    0.28870167264877   -0.19789526667063
C         3.43667482718669    1.78242720065815   -0.32225631408806
C         4.23719718553686    1.69041799821705    1.04876097204275
N         3.48983960676167    2.20256132078705    2.19054850104329
C         3.97969317859524    3.58455468986533    2.46921504612946
C         4.13356532235278    3.76294549076141    4.01636522846057
N         4.82943921674881    2.60858042635218    4.60620125421501
C         5.32514003412997    3.55767142363207    1.78111958218369
C         5.45345538511984    2.46896038099559    1.03567000979962
C         6.42142050735400    1.79421420128023    0.16863810515684
C         5.87720638052406    0.35371714161635    0.00845627000018
C         4.51651301462046    0.20730788848228    0.84647774624823
C         4.21181040521141   -1.23537006730565    1.25168575433425
C         3.83255624183028   -1.90297665488698   -0.08006490176674
O         3.42170439806196   -0.87287131909506   -1.01243679051159
H         1.76169269054174    0.84436134312976    1.29536964379771
H         1.63360540971344   -0.84507977089599    0.86521991443484
H         1.03404321545787    0.45736498512680   -0.27436641872653
H         2.49650043749465    2.33089996351166   -0.19955191322226
H         4.04409286238505    2.17338875230819   -1.15106289660027
H         2.46840204216541    2.16260336074955    2.23856999175158
H         3.32598658242832    4.41265110722414    2.18318928314619
H         3.14016299788291    3.70652237715545    4.47583358536838
H         4.60614060456632    4.71055493751150    4.30964951035538
H         5.75619482221280    2.47738026828321    4.19793177843405
H         4.33421295590670    1.78295654035276    4.26182640350897
H         6.06520590870531    4.33973277932211    1.82832396285996
H         7.33335562652667    1.70495676547770    0.77091104018635
H         6.61450240852344    2.19242762645417   -0.83285314896739
H         6.51889403427104   -0.44720550947836    0.40382215131898
H         5.63167377646419    0.10567649729997   -1.02902318081315
H         3.41080545005535   -1.34666774409348    1.98764519964604
H         5.00564758605689   -1.82392445857277    1.73194248102281
H         3.05524812971089   -2.67373107844291    0.00545491096407
H         4.72756211070279   -2.29767839172749   -0.56545760113826
