36
 energy: -47.840421429090 gnorm: 0.138925406984 xtb: 6.4.1 (79825abcba525fcdf90b791dcacef51065a7a4e7)
C         1.69322954390070    0.00421091625436    0.31380591697405
C         3.09669028302059    0.24095777403109   -0.29050985287647
C         3.36437114572901    1.72442110330563   -0.46494395610178
C         4.14619469986286    1.80737112051948    0.91739515026681
N         3.56129613829112    2.16576437967570    2.20345923976237
C         4.10097899753884    3.51581228230555    2.54055020409072
C         4.21035157163287    3.76266030581370    4.08206806550961
N         4.69066414323616    2.68913688452448    4.96612294282925
C         5.44441602003149    3.47511495888501    1.84921379985262
C         5.39805895496253    2.52735933181469    0.92343739651117
C         6.38085362988612    1.83050374646237    0.09127746172149
C         5.82461831481032    0.39156917682087   -0.03883250704647
C         4.42373123644189    0.32066069378183    0.74071189756250
C         4.23250001074060   -1.09189987851764    1.29430028852663
C         3.91917517883333   -1.86891765538959    0.00543916402077
O         3.36049635166848   -0.98218282334026   -0.99496719690392
H         1.32552398445993    0.81983697211441    0.94580899022852
H         1.63874627391854   -0.98385265794943    0.77318540447049
H         0.99731347012378   -0.18397018131142   -0.51694584105645
H         2.51565996267792    2.40097139836700   -0.61250979025028
H         4.09636966028896    1.83134438590396   -1.27825419881586
H         2.55072075201583    2.06674921873032    2.33062365476330
H         3.56106143622861    4.37745770422648    2.13937328105855
H         3.28760509532762    4.09979120259968    4.56789172113562
H         5.00004185118109    4.51543744155271    4.21253867140909
H         5.70249397934116    2.63420553865036    4.83980457615021
H         4.38921510645447    1.75306252098108    4.68613873654297
H         6.09522373244491    4.32830472298599    1.94952472453803
H         7.32436676058394    1.75972212565581    0.64544186249650
H         6.62624686352934    2.23317587476734   -0.89689085079236
H         6.50234114131609   -0.40125437104836    0.30998967888226
H         5.60829220270515    0.08240981196735   -1.06635259676549
H         3.50479358702713   -1.10996545328182    2.11023496831922
H         5.17922022867291   -1.42862328369384    1.73877573753427
H         3.25368591110265   -2.72282989698547    0.18858346900873
H         4.86401245382575   -2.23471426174154   -0.40187693353566
