36
 energy: -47.851917319527 gnorm: 0.132166995919 xtb: 6.4.1 (79825abcba525fcdf90b791dcacef51065a7a4e7)
C         1.80870791117081    0.05259490087690    0.61268468401783
C         3.14528599158607    0.12070997876110   -0.16182675219558
C         3.51021342252036    1.53424935118424   -0.57592585161734
C         4.13850946471352    1.86073402370367    0.84802700442351
N         3.30152718841192    2.54290172840528    1.82711866979387
C         4.07347930022033    3.72231664175630    2.31761587585273
C         4.03877128530207    3.69884456798621    3.88203842787761
N         4.45430149075909    2.38816725329361    4.40564640196338
C         5.47746525313007    3.46158931495201    1.82236859339435
C         5.43035504101532    2.50354601065501    0.90728115374519
C         6.37478731166756    1.79126994690766    0.04432493488208
C         5.81454751873279    0.34801724414211    0.04087589454595
C         4.44508566620970    0.36952131915022    0.87712569003575
C         4.32931997637532   -0.94531875822519    1.64923349349964
C         4.03286241817923   -1.85451661211322    0.44567037719805
O         3.48048975908723   -1.16624274175804   -0.70341494177296
H         1.37983258718444   -0.94612161132811    0.47662443008225
H         1.11743010730314    0.84683544639040    0.32705467350091
H         1.95680443446786    0.14022671766000    1.69907681345462
H         2.63261956188381    2.11890712077079   -0.87225484138451
H         4.21038415850646    1.49227347777017   -1.42252307426080
H         2.48004566074443    2.97154584681940    1.39275747595050
H         3.76284912503857    4.66541242461137    1.86048800246853
H         2.97767432564253    3.78770685667671    4.14149870026742
H         4.63082530442826    4.50206477987430    4.34205585642564
H         5.46525027083748    2.30873530090029    4.28545271250630
H         4.07167308528992    1.65409243983872    3.80545680234149
H         6.29738379615574    4.13070494024227    2.02623976789863
H         7.37265855395499    1.81636667667955    0.49814021093382
H         6.35930349167819    2.18410273250829   -0.97757616134960
H         6.49159995135337   -0.37109616931794    0.52464253606635
H         5.66073139854479    0.08127444314266   -1.00953490842208
H         3.58604970335443   -0.96268628762693    2.45103146822357
H         5.27791697756749   -1.21606436187897    2.13305238862399
H         3.40802221024295   -2.70462365179416    0.74977008175696
H         4.98752183783487   -2.26416653422367    0.10915388296087
