36
 energy: -47.847096363484 gnorm: 0.131998967760 xtb: 6.4.1 (79825abcba525fcdf90b791dcacef51065a7a4e7)
C         1.84969401459133    0.04938048337039    0.52196000919136
C         3.25654123136974    0.04514264109546   -0.11968756175076
C         3.45972816574490    1.47299509035535   -0.59159452304972
C         4.10107571438465    1.81583052563304    0.82266406062147
N         3.23379763441924    2.54304217095527    1.74108926722237
C         3.95856259627658    3.77215525309354    2.17871241652578
C         4.26666899491931    3.66603525418904    3.70939285007734
N         4.40663749592009    2.30866329318256    4.25953455477383
C         5.30591510115822    3.68514718032304    1.49937734845954
C         5.31528804094214    2.59396043686539    0.74659898465443
C         6.43315026014915    1.85841054659993    0.15218025773704
C         5.91836469931610    0.39897957670446    0.10840718611962
C         4.53732693876426    0.36056110354127    0.92477770749121
C         4.35885418099340   -0.88562650545126    1.79283346172349
C         3.97628745065315   -1.91685017271403    0.71890956952269
O         3.61877102567245   -1.28141988419634   -0.53314631394879
H         1.42306120501814   -0.91845490630880    0.80684634980266
H         1.13035320341965    0.59744119134540   -0.08832338550261
H         1.88104300887662    0.52313306882465    1.51414724816493
H         2.46177331083716    1.90642090248761   -0.71822312816961
H         4.09137605925795    1.54139113413409   -1.48885194853098
H         2.32481449782606    2.79046395167543    1.34137748118708
H         3.45689400017385    4.71806719967057    1.95856261549314
H         3.45237353480557    4.14357064794744    4.26619242577403
H         5.22664263333896    4.10214801319794    4.01852551582154
H         5.15555701230316    1.83308000588298    3.75385333777096
H         3.57563654938187    1.72011462371988    4.16709116501683
H         6.08912667610456    4.38219198735238    1.74888463700101
H         7.35734660379158    1.87103448285173    0.74211839135854
H         6.62338532524856    2.29751604674017   -0.83262238944891
H         6.60926955052535   -0.30274621793118    0.59808638318807
H         5.68653475234207    0.03667579155903   -0.89815372941225
H         3.69585605102020   -0.72620970175327    2.64761540590658
H         5.26432983200861   -1.19536667322761    2.33264373541483
H         3.23114632940373   -2.64097279139885    1.07386740229112
H         4.88650533606610   -2.46377975084266    0.46434626777929
