36
 energy: -47.830431263044 gnorm: 0.150215685380 xtb: 6.4.1 (79825abcba525fcdf90b791dcacef51065a7a4e7)
C         1.76871641338299   -0.19646632473349    0.40800134162771
C         3.17522335213936    0.03798927015038   -0.19009351744529
C         3.41840878626950    1.51166969951923   -0.45818037581647
C         4.11829096049267    1.71482196409417    0.95528495986115
N         3.36964130830238    2.31352255499835    2.05328049833190
C         3.83230702110908    3.72328836450319    2.21458159339675
C         4.07334019081321    4.11392581624886    3.71073633000876
N         5.00785884010244    3.11381216266040    4.25032254985579
C         5.18255320692661    3.67782348483768    1.53694341751189
C         5.33798774165222    2.48785838938833    0.97367189919570
C         6.47051483890503    1.68156493748147    0.51404547184688
C         5.79768209174852    0.33162562032825    0.16501975742578
C         4.40135267339219    0.21870325819307    0.94778076251416
C         4.17444260363524   -1.15237794443145    1.58575023247470
C         3.97189820201505   -1.97377365332066    0.30224840963154
O         3.59373973437504   -1.17061606782262   -0.84281387923294
H         1.66868495230870   -1.28616013378349    0.35858242804282
H         1.11386361350543    0.28664936956905   -0.31865855034670
H         1.66307015274806    0.35176570990917    1.35570398084090
H         2.50114828327070    2.09456363713319   -0.59483490952635
H         4.15307716784546    1.59185340543560   -1.27215881627934
H         2.35745781066927    2.25330659754510    2.19146881998149
H         3.22643100403430    4.52123534310621    1.77745278287350
H         3.22009376566409    3.98323090808309    4.38603796537390
H         4.49764749581254    5.11722385340630    3.85448295267672
H         5.99593878254052    3.35442304698053    4.15770598247607
H         4.89364333467350    2.17826675936233    3.85382853245084
H         6.01655352549218    4.35671583250934    1.60831822250955
H         7.09767067262039    1.39966162129520    1.36817152855456
H         7.20422279987001    2.16769822989436   -0.13725041953728
H         6.34943782368603   -0.58067704757651    0.43487855978980
H         5.66662658661130    0.20790373853035   -0.91465213028171
H         3.27729727156233   -1.14149942794087    2.21076568767714
H         4.95899394743217   -1.64551251271108    2.17610415501155
H         3.35559148683704   -2.87728991566776    0.39924487836421
H         4.97167515249553   -2.35611550953843    0.08616557958069
