36
 energy: -47.841040571634 gnorm: 0.142616189950 xtb: 6.4.1 (79825abcba525fcdf90b791dcacef51065a7a4e7)
C         1.75646659098307    0.07861331820010    0.52939680870584
C         3.14851730466626    0.13592985042915   -0.14131794051825
C         3.47113206692792    1.56199662291150   -0.54751616441416
C         4.14336465145772    1.77043311042108    0.87854404949073
N         3.26242907583214    2.55666247015365    1.73312512520587
C         4.00213033414233    3.72145472450126    2.30199972512019
C         4.05364884800034    3.80447839374420    3.86393011242130
N         4.74245236196049    2.70333095069346    4.55511008523483
C         5.38904097559687    3.50324281226401    1.74227857761263
C         5.42502828723217    2.43040195593606    0.96435245801093
C         6.41538835905688    1.68734948027565    0.18265996326915
C         5.74025758292989    0.29621418862870    0.10650195862825
C         4.39478759122582    0.27213769236920    0.98076330231084
C         4.29515941869636   -1.13549494122003    1.56983162157210
C         4.11165321385949   -1.91829387580256    0.25962424528270
O         3.46789763874692   -1.11856201392750   -0.76274617959621
H         1.37993018884174   -0.94436422828354    0.42160814314565
H         1.08226206624691    0.86857968536776    0.19522774959441
H         1.96234732906678    0.25387010105567    1.59558533243999
H         2.54355051644836    2.08936757223330   -0.79506208969634
H         4.12284410325500    1.73642571388200   -1.41560249458384
H         2.29731876580322    2.61610353922683    1.39806355938260
H         3.60480304054727    4.67146719951191    1.93526542173258
H         3.01781674566960    3.86087767357740    4.21750315905355
H         4.54461126902578    4.75494861491942    4.11466701296932
H         5.67578788523131    2.92222884227078    4.90687977677635
H         4.70456243768487    1.83121203937350    4.02269027958125
H         6.16733345562958    4.15258403225690    2.10856060288075
H         7.39513882408136    1.62420861233434    0.67095035246708
H         6.57603888676504    2.16062530063793   -0.79152722674425
H         6.34317703837954   -0.56739886761216    0.42306938333952
H         5.50259648015432    0.07643808528574   -0.93915079935778
H         3.37834082366256   -1.28102109847409    2.14767088135219
H         5.24061131048701   -1.41948326153103    2.05221280642134
H         3.51156297253528   -2.82187490772891    0.42996782614635
H         5.07338522980318   -2.32530137410790   -0.05951124675381
