36
 energy: -47.838900504759 gnorm: 0.147358650200 xtb: 6.4.1 (79825abcba525fcdf90b791dcacef51065a7a4e7)
C         1.72584081381617    0.09800127363630    0.45113524577686
C         3.15098389548280    0.13477334994588   -0.14766657327844
C         3.45001237485385    1.57225605825203   -0.53103207075145
C         4.05926215218106    1.75246454179508    0.92681891666872
N         3.35568800640802    2.33071872447472    2.06485147238415
C         3.91224641480437    3.70537167316581    2.23244954050704
C         4.15095730422002    3.94910548735342    3.75979509405155
N         4.84662842935635    2.82325720141538    4.40261155812954
C         5.27660117448012    3.61217402476832    1.58880721509300
C         5.30360891289748    2.48457574646985    0.89221260623982
C         6.35135004789955    1.68355478983333    0.25614118566161
C         5.81429624225741    0.23837553833625    0.11511279205913
C         4.43356368138237    0.27651657242335    0.93201227500836
C         4.37656385178670   -1.09126710374279    1.61338984289229
C         4.10405905464827   -1.93455915781290    0.35732788534923
O         3.46671398350615   -1.15812640056659   -0.68678752046421
H         1.40310349839474    1.12980094294798    0.62751885831743
H         1.73505720985686   -0.56445497137123    1.31793068617734
H         1.20844888918380   -0.48331468066100   -0.32619167250484
H         2.51534466352821    2.13088200188918   -0.64994333489540
H         4.26139659649474    1.68412874759376   -1.26442694563965
H         2.33631506078821    2.25560194492099    2.01511637611238
H         3.26212742059901    4.44472280000273    1.75748443348467
H         3.15350186519761    4.04472213985140    4.20373540353267
H         4.68005841423778    4.86818790633216    4.04727765998248
H         5.74916190162279    2.63219471368391    3.96477385939611
H         4.26613689874562    2.04111211324861    4.09152229598056
H         6.09486425613010    4.24108574790736    1.89938917440118
H         7.25606415711203    1.65763934558257    0.87512901121479
H         6.73169942772764    2.08429076997373   -0.68915464545192
H         6.42401089314206   -0.41032892483081    0.76085641681177
H         5.72078388178333   -0.18359702962337   -0.89055542123178
H         3.57536002414761   -1.16808146753545    2.35352787309903
H         5.36558158653116   -1.34517470874050    2.01909296442664
H         3.43278867735692   -2.78913174171463    0.51444463651930
H         4.97791976636157   -2.30067260491687   -0.18558961775699
