36
 energy: -47.835761041505 gnorm: 0.133858056269 xtb: 6.4.1 (79825abcba525fcdf90b791dcacef51065a7a4e7)
C         1.72381647819759    0.00405085558339    0.34598390599765
C         3.15025694917067    0.14726206600048   -0.23341813071830
C         3.40180829458524    1.63149755716419   -0.42449554098678
C         4.07112521487551    1.74194571800430    1.01383890034614
N         3.40280140457144    2.24320542469668    2.20824024259996
C         3.88264019345943    3.64460444068049    2.39086732158753
C         4.29859716218184    3.73655958819557    3.89675495412307
N         5.12067978816689    2.58608751909309    4.30332581028093
C         5.12444857398642    3.73606450854712    1.53414556617179
C         5.28300262502552    2.52739841155066    1.01314822335961
C         6.40481552975183    1.77043554690661    0.45410801921477
C         5.87896664732749    0.32246955709920    0.30004208509726
C         4.39101679659651    0.25779646700538    0.89755737519380
C         4.10704230938085   -1.15475809568110    1.40981183987548
C         4.07056573924619   -1.87439564145071    0.05191521310118
O         3.48159399084605   -1.03761658792695   -0.97382678042132
H         0.97864579246396    0.26305879200848   -0.41396125287420
H         1.61266517524520    0.63248931031084    1.23084437258940
H         1.48111162311190   -1.03166254274390    0.62571928689930
H         2.57862806285471    2.34910063819493   -0.50950543174039
H         4.14287555268712    2.05557260738746   -1.11710478402649
H         2.38792962822220    2.33287457341015    2.11215671557745
H         3.11192270014913    4.40893176338941    2.26169712134430
H         3.36988806900730    3.82069803739156    4.47257006213386
H         4.84855193238445    4.67728400598910    4.03780114975084
H         5.98538786109761    2.56475236742772    3.76055684114495
H         4.69102420198571    1.74555079322446    3.91039836888076
H         5.74135168227678    4.61522717681860    1.62386256129452
H         7.21831936337900    1.79606145439847    1.18887327990317
H         6.71803492611163    2.26153190573589   -0.47301503946456
H         6.42862348851490   -0.38471388398589    0.93826085384297
H         5.88379885784535    0.08021699039721   -0.76741485187565
H         3.18512382144853   -1.10096699704227    1.99530748490302
H         4.82719438733554   -1.55569369495656    2.13634593811520
H         3.67127887689738   -2.89040975420855    0.16968284055610
H         5.06782884219945   -2.04416756900976   -0.35927186088897
