36
 energy: -47.848762507694 gnorm: 0.121140985764 xtb: 6.4.1 (79825abcba525fcdf90b791dcacef51065a7a4e7)
C         1.72212755907699    0.04104479174335    0.39459222779652
C         3.16688079597878    0.16397182195150   -0.14255364662825
C         3.41416949570791    1.64628029024315   -0.35315666465266
C         4.21970187348880    1.68492155436416    1.01746895405025
N         3.43592285229208    2.19295494123031    2.13644412107182
C         3.92853593079370    3.59040688331241    2.31526710564611
C         3.99412585391398    3.91710833311231    3.84436413777482
N         4.83985743286046    2.95585871130104    4.56923859629625
C         5.30951492417683    3.54589177801361    1.70261650592672
C         5.42937156875075    2.46973535700845    0.93778096975740
C         6.47942893178816    1.65286499052515    0.32615561475240
C         5.84361308626604    0.27763108600016    0.00783352270927
C         4.50074486557348    0.19450456068178    0.88247461354176
C         4.23526918528281   -1.20805971213477    1.43082945462165
C         3.98322651050905   -1.94522084331377    0.10562756932923
O         3.55476426499469   -0.99325075120870   -0.89906473626842
H         1.35276525040233   -0.98646918016687    0.48215732123462
H         1.06538137260362    0.65928593599745   -0.21919103899601
H         1.73422004074963    0.39541858378221    1.43580919686901
H         2.52986498713882    2.28447318942139   -0.25057993181133
H         4.06260248081986    1.98874737958173   -1.17228968949533
H         2.42091915693440    2.20598078730246    2.00669351276367
H         3.23900938900251    4.30470698922759    1.85786658581475
H         3.00676264298439    3.93415489482788    4.31972318686666
H         4.41062133324379    4.92659464052897    3.96591924040716
H         5.83109617770153    3.20074040378977    4.55336072174091
H         4.78345591417535    2.04633874010334    4.10546043775987
H         5.99178910393239    4.38005081013190    1.68757050791766
H         7.34969849403022    1.67411264279914    0.99286745700801
H         6.79414772927782    2.11693910967118   -0.61428394840140
H         6.55018842186828   -0.56185794972539    0.08242432243752
H         5.47893609440673    0.25465616851348   -1.02398859448663
H         3.38435168377283   -1.25415255948529    2.11599167831641
H         5.07683537234068   -1.67765673412223    1.95852752813928
H         3.24009073795079   -2.72979001257913    0.30000956319970
H         4.88514510952553   -2.48206805579344   -0.19565128874508
