36
 energy: -47.846745592495 gnorm: 0.125157734664 xtb: 6.4.1 (79825abcba525fcdf90b791dcacef51065a7a4e7)
C         1.69072955373455   -0.05390558267839    0.38091681007159
C         3.13130617763612    0.15788881317894   -0.13949724053797
C         3.37721821642924    1.59367268527315   -0.56469798139578
C         4.01490489429156    1.87374724539283    0.86495375864740
N         3.13245509896787    2.57568877901473    1.78857345782363
C         3.88422334979048    3.74570049891190    2.33026923155233
C         4.29904988536276    3.36328527398008    3.79001274834807
N         5.30183671870943    2.29250361645183    3.90204365699247
C         5.20454056469559    3.74871901587491    1.59462077107579
C         5.24159668785393    2.63578687272659    0.87527347569039
C         6.30944235711836    1.83935630093081    0.26750115522327
C         5.79617189036831    0.38069322358475    0.34309529311070
C         4.33683153927822    0.39261914875706    1.01046746063279
C         4.20451858404889   -0.92259025028197    1.77928109879440
C         4.04504071412860   -1.86207074679070    0.57303266601335
O         3.62491631583638   -1.11193675939154   -0.59316974838504
H         1.33665592795979   -1.01604742252267   -0.00482412470476
H         0.98286545035320    0.72991290021754    0.10737602288692
H         1.70700682593668   -0.10349229293889    1.47961421984595
H         2.46096729240834    2.18304648314685   -0.67840550076495
H         4.03875582233126    1.70620043850118   -1.43557883766316
H         2.22305524335944    2.83855433929552    1.39981775503333
H         3.36812049189450    4.70512150144916    2.24062601569688
H         3.43484400043566    2.92719376359475    4.30393423888271
H         4.59045692623471    4.22456579409934    4.40692808443261
H         6.23181351466438    2.65586431937290    3.68783451346075
H         5.10318872713226    1.55803554294304    3.21896715079244
H         5.98634718167816    4.47552247988663    1.74321708373181
H         7.29590120945863    2.04443157535214    0.70013069502551
H         6.51804871212937    2.02724963923475   -0.79080823411391
H         6.47437182636659   -0.12901692345530    1.04294865503680
H         5.87114894893165   -0.14469257146279   -0.61425639110093
H         3.34781472929521   -1.07486039362548    2.44147799378308
H         5.11927994795777   -1.09904440212628    2.36177215789713
H         3.34463525970692   -2.63586372875880    0.91400266012534
H         4.99221318182521   -2.32288214675876    0.28502536010040
