36
 energy: -47.846537926658 gnorm: 0.133788612421 xtb: 6.4.1 (79825abcba525fcdf90b791dcacef51065a7a4e7)
C         1.84109850240719    0.02820573204153    0.65893725402761
C         3.10480458197825    0.22548992589382   -0.21001294685312
C         3.42661645892857    1.68483332314886   -0.47363686823614
C         4.14425288141062    1.78967193857493    0.94163581470711
N         3.36622446273824    2.33783864630631    2.04558223745090
C         3.93920483854260    3.67192794787348    2.39114898110268
C         4.21866644699090    3.62477110778614    3.93025619044455
N         4.76313745655673    2.34696829425561    4.41551591173674
C         5.23906286595548    3.67339980014001    1.61992126753390
C         5.38094997171792    2.53531552801180    0.95502750242137
C         6.45365199586446    1.74522364145152    0.34753410652016
C         5.81242684099652    0.40942143899975   -0.10115475852697
C         4.46894482148903    0.31182717828373    0.77104552228697
C         4.31102251980440   -1.05385171296802    1.44062622099175
C         3.92098810383683   -1.83229605326232    0.17374440121405
O         3.38488694647653   -1.00773897519238   -0.89017979965363
H         1.46902633952422   -0.99377706699173    0.52857406086282
H         1.13659793673396    0.77920644963883    0.29845921419734
H         2.06143384206690    0.27830344189220    1.70715633279803
H         2.56050424604641    2.28955688662221   -0.76340506471522
H         4.25002789364027    1.83373533457902   -1.18676357429658
H         2.37091631122805    2.33913640147325    1.80768029271472
H         3.36149033639650    4.54129595218504    2.06660019018225
H         3.29152895752132    3.75734647653573    4.49945102338212
H         4.83415263245449    4.49323005525827    4.20276772295738
H         5.77672981137580    2.24814040804053    4.34043605042802
H         4.35138594308978    1.52822327176790    3.96206782430229
H         5.93244809841148    4.48010460582135    1.79309729037902
H         7.18924636702354    1.41565493688673    1.09091193186776
H         7.02850604277051    2.28909007570934   -0.40916355794723
H         6.44068100494919   -0.42369979426156    0.24635061762373
H         5.52685391901115    0.42035330319194   -1.15780161650873
H         3.50595876354258   -0.98975899648254    2.17778074507638
H         5.19731011591512   -1.43850488225776    1.96384357216518
H         3.15022962257716   -2.59119274737921    0.36240032624352
H         4.84001232681278   -2.24416439953218   -0.24838111630450
