36
 energy: -47.837495900840 gnorm: 0.136902349568 xtb: 6.4.1 (79825abcba525fcdf90b791dcacef51065a7a4e7)
C         1.74178251279643   -0.05895840928615    0.62786275351526
C         3.12829995161906    0.08850564931772   -0.04054756071963
C         3.39517244799048    1.51869337511981   -0.47192420973310
C         4.14682286991746    1.73716284432429    0.91237441032236
N         3.36171636707756    2.44694381013289    1.91453775158711
C         3.94574877675583    3.80346550469389    2.12964738088969
C         3.97885419932620    3.96743645808530    3.68566507705604
N         4.74879489699469    2.91902499693423    4.37321901569177
C         5.34423771094461    3.54314187239007    1.61887787463249
C         5.37681715509491    2.48790746091913    0.81708593369771
C         6.50724129892314    1.68440832544876    0.34749742765573
C         5.90608675191667    0.27124687581267    0.15141881470522
C         4.49835580834954    0.25564684958723    0.92164744841242
C         4.38720600863994   -1.13375025466119    1.55059735132883
C         3.97012726069014   -2.02295570173978    0.36803615370131
O         3.46714916575840   -1.15365764006615   -0.67626622824743
H         1.41986187648728   -0.99908656936198    0.16698613307609
H         1.11272232833677    0.69529376178690    0.15283170083459
H         1.66574371776442    0.02966214454626    1.72158313622667
H         2.54343686188014    2.15654029548123   -0.73174023183673
H         4.12323720988551    1.68471289052296   -1.27882391179534
H         2.34990431564263    2.32546862185122    1.82117037047608
H         3.59834622483061    4.66538540145769    1.55406748459003
H         2.94311902205008    3.88466550109484    4.03429741758415
H         4.42206037628598    4.92540924684164    3.99089143373045
H         5.76463357702784    3.01988448542844    4.39915225868736
H         4.52799552838734    2.06479997543501    3.85645491440594
H         6.06677980461841    4.33559183292899    1.72612334432166
H         7.26406395956846    1.67459410437664    1.14087521830821
H         6.84750881851151    2.19304525919817   -0.56043742274532
H         6.55338565371058   -0.52592458354374    0.54521579353564
H         5.79741749167100    0.01311575252250   -0.90675569508148
H         3.52638253026754   -1.13243055568568    2.22484770015704
H         5.34852752375878   -1.47721603240808    1.95693757918652
H         3.18854188352372   -2.67108758884408    0.78592758833521
H         4.75298365745947   -2.63392886586181   -0.08614296284707
