36
 energy: -47.848196597833 gnorm: 0.132311522601 xtb: 6.4.1 (79825abcba525fcdf90b791dcacef51065a7a4e7)
C         1.82341678208419    0.18278318092463    0.60347497681435
C         3.18050390133200    0.19357352827521   -0.13756940074139
C         3.50066270034900    1.55324075212060   -0.73048347881554
C         4.09990680530282    1.96297986034376    0.68444072945879
N         3.19351722021484    2.55032506088888    1.66321363990819
C         3.95076872843421    3.62272138834869    2.37318089745220
C         4.18871163249008    3.21092191602993    3.86414634930139
N         4.74781256508809    1.86360067539285    4.05607691913367
C         5.29572445660681    3.65671986955341    1.68444036560294
C         5.35142788728332    2.67501414448997    0.79528197726799
C         6.38171799042420    1.90956778629285    0.09059949966031
C         5.92434992614193    0.43811721848248    0.24062181719662
C         4.46487406326915    0.50120505468010    0.90481472177797
C         4.24729617785518   -0.73380524204804    1.77989544663531
C         3.98444048505398   -1.79927344896569    0.70343065192157
O         3.57223938806922   -1.13494318514586   -0.51640094823182
H         1.69740530231511   -0.78664909328622    1.09764427223406
H         1.01502946459566    0.30667398492303   -0.11862513802870
H         1.71456404984910    1.00579010606129    1.32504997077504
H         2.69706789752789    2.23052668807807   -1.03923221556480
H         4.30659770908852    1.64639470357524   -1.47245319297407
H         2.39960105994051    2.95054638503443    1.15650128807857
H         3.41323111469018    4.56851838448466    2.26637226659227
H         3.17591925368629    3.15342721309282    4.27898231069315
H         4.80127512568865    3.88748192579671    4.47597905101028
H         5.72936998124402    1.76551399624100    3.79207418683522
H         4.24638706448828    1.24398760161165    3.41564737924674
H         6.07406471177115    4.34531234396828    1.97004950507457
H         7.40116877603307    2.06762454301065    0.46216835109027
H         6.27324988583621    2.16579561079674   -0.96837228618987
H         6.53784003692279   -0.23336726353836    0.85892012250010
H         5.72444810229081   -0.15248294168212   -0.65904742371259
H         3.31846350525888   -0.57009389923345    2.33315927059894
H         5.01687458451579   -0.95759350794410    2.53148585422138
H         3.30083342346618   -2.60258354401327    1.00832111189686
H         4.94400843968006   -2.24618864747281    0.43523821772327
