36
 energy: -47.849319769961 gnorm: 0.121148143530 xtb: 6.4.1 (79825abcba525fcdf90b791dcacef51065a7a4e7)
C         1.67970285793816    0.00330976184912    0.48828248096185
C         3.10498110473122    0.10937815839372   -0.10187002338255
C         3.38874292910455    1.54565656347966   -0.50102812064877
C         4.16922462701055    1.73636710722661    0.87136676258945
N         3.38754546346573    2.37934455147796    1.92020914119956
C         3.94364256507723    3.73414532696754    2.20793816715620
C         4.04797964337406    3.90896441687952    3.75962292437513
N         4.91529214233623    2.96023451844475    4.47543456259003
C         5.29596542831859    3.60625625105642    1.54514675638460
C         5.41371267914905    2.46905090705027    0.87406479272766
C         6.49837474117080    1.61678796185781    0.38300566574849
C         5.81465743628062    0.25106473988725    0.12964894976716
C         4.42550866427449    0.23667398320729    0.93293003761395
C         4.26544296264894   -1.11699274738292    1.62598267203922
C         4.10542603236944   -1.91448013780785    0.32156692482553
O         3.49395180143276   -1.12342335337409   -0.72703307822270
H         1.46346225499871    0.64980326569174    1.34570142477093
H         1.58575769464495   -1.04531568190812    0.77433584814544
H         0.92667661846427    0.14318222108519   -0.30117742421831
H         2.54418355532106    2.22433925351953   -0.66201207111966
H         3.95228462456873    1.72878755787654   -1.42710138306773
H         2.38545593347920    2.20053781950957    1.81493782498473
H         3.45071713360061    4.62993461945888    1.82132113319842
H         3.04966368720248    3.90069463773553    4.21177307980386
H         4.40225035580641    4.93155842611616    3.94962415451233
H         5.79729072607480    2.96748564414130    3.96084801514126
H         4.58789256682822    1.99208344580899    4.44395593653631
H         6.04405870300456    4.35382666672543    1.75260891426004
H         7.29643538392167    1.49530462266227    1.12507452260484
H         6.90690627831022    2.00651966185587   -0.55510434679008
H         6.37467403815513   -0.63899996977731    0.45170559479932
H         5.59877066237160    0.11835693276392   -0.93522452552160
H         3.41677009156463   -1.06347470756023    2.31338539177563
H         5.14552332401231   -1.52838735082995    2.13924011256918
H         3.53616471163598   -2.84567981459836    0.44153609285672
H         5.09168158729329   -2.15339956137465   -0.08173011683819
