36
 energy: -47.838917724961 gnorm: 0.140261366458 xtb: 6.4.1 (79825abcba525fcdf90b791dcacef51065a7a4e7)
C         1.71548918110839   -0.07857862217294    0.25076464389808
C         3.18510971800028    0.13409636268115   -0.18043541562357
C         3.45523130980695    1.56508794974423   -0.60709820736638
C         4.06872233331716    1.89206772882851    0.82318258625847
N         3.27098296676702    2.60477488548727    1.81321962143696
C         4.06434168260487    3.71687195522954    2.41433468708634
C         4.18286979923228    3.63820590471508    3.97283921706714
N         4.85257864004171    2.44221385134030    4.50744075608169
C         5.39570266256014    3.50346410734156    1.73142885061659
C         5.36251129094175    2.53368200499554    0.82817214435930
C         6.23648000027321    1.74718103954773   -0.04451231842523
C         5.78334453122546    0.28946572631094    0.21354453769728
C         4.37620070575268    0.40858158484762    0.97575170553577
C         4.15916859093674   -0.90874027343456    1.72135016438672
C         4.09157814199169   -1.84059050930771    0.50062138935485
O         3.68324058420379   -1.11462491872554   -0.68490295847491
H         1.38660071187755   -1.12041367108811    0.17143476961596
H         1.19528377941424    0.48477230168241   -0.52530857408517
H         1.50137474655806    0.24243578157206    1.28079597965280
H         2.68193902124175    2.28566982968413   -0.89447848885384
H         4.28515491931874    1.64738934389493   -1.32346490069881
H         2.32809028322812    2.77719210757894    1.45480213714907
H         3.70641645072072    4.73406194839977    2.23516776831088
H         3.15767780101965    3.61761828850632    4.35975062933329
H         4.74715379116528    4.49866419058322    4.35819859727500
H         5.81706425662277    2.45618588971944    4.17226068858170
H         4.44075439717585    1.57264367069608    4.16139684925571
H         6.10267498318426    4.26882247221486    2.00704172230974
H         7.31057435927351    1.94312246725924    0.05674739370637
H         6.12225763062730    2.13358532607749   -1.06259102752400
H         6.45486924599007   -0.19467577793881    0.93757207864634
H         5.63089758752824   -0.45268969701161   -0.57648033452688
H         3.30008766103664   -0.88980618187249    2.39755565711022
H         5.00860917618547   -1.19789161889379    2.35543410693314
H         3.43361616021753   -2.69855496787715    0.69184621847889
H         5.04620322096412   -2.29656076450990    0.23004215354383
