36
 energy: -47.849233346736 gnorm: 0.128125182170 xtb: 6.4.1 (79825abcba525fcdf90b791dcacef51065a7a4e7)
C         1.81292853408786    0.10557434105504    0.68244612854868
C         3.15198027313379    0.18577290834391   -0.08661647260020
C         3.34134363682971    1.63330784122682   -0.50077568631740
C         4.11635292292704    1.82554685414995    0.87450425590149
N         3.31933472440354    2.49036047918609    1.89787992102988
C         4.10424770304662    3.63480375280958    2.44713255892363
C         4.14160575073544    3.58064984422473    4.01073268530414
N         4.39468214323836    2.18972125975426    4.41813388016134
C         5.39941921262457    3.53680736702555    1.67424653414149
C         5.37804809425560    2.52583161719003    0.81697005951887
C         6.37709930486996    1.87070459126639   -0.02960449862109
C         5.83883392393332    0.41926616512044   -0.05095617501131
C         4.52562123695504    0.35890964443456    0.86938703700215
C         4.52107223669371   -1.01607634098967    1.53852808415111
C         4.03583606036341   -1.86219134037016    0.35036675709837
O         3.47707740180381   -1.06127851029458   -0.71994206773345
H         1.02219031527300    0.40931894943281   -0.01207053977160
H         1.78467587535154    0.70837009887013    1.59135020795165
H         1.68643557248791   -0.92103108455445    1.05653250772447
H         2.42016580808318    2.18439301952056   -0.71881965280528
H         4.01104107390848    1.73162311431459   -1.36712862079755
H         2.40590241288329    2.84057402241983    1.59749801713462
H         3.56967856292516    4.55659445249514    2.20336121604724
H         3.14211660216686    3.85634245837552    4.36591988294580
H         4.83057368283812    4.29913017869356    4.47593794760715
H         5.31411465811054    2.00410812030429    4.01444462929476
H         3.71630006532633    1.71124879085019    3.82117513695400
H         6.13837180099877    4.27295854199925    1.94549595861552
H         7.35058253900006    1.95834479409930    0.46736112597670
H         6.57932237831509    2.39242112139253   -0.97075112743070
H         6.61044063696515   -0.19785098730693    0.43210056886319
H         5.63985359092373   -0.01676476808779   -1.03505875634891
H         4.00862657246067   -1.11417725702693    2.49946932694813
H         5.53744642090010   -1.39681350976036    1.70953387859308
H         3.26889207051663   -2.58228152175961    0.66477248962476
H         4.87457575145515   -2.40839452360806   -0.08622097841724
