36
 energy: -47.841671854254 gnorm: 0.118913421720 xtb: 6.4.1 (79825abcba525fcdf90b791dcacef51065a7a4e7)
C         1.75457196544389   -0.05869258328689    0.38488299889192
C         3.12779718118713    0.19573027678656   -0.27879622313216
C         3.32485056458497    1.69584006994516   -0.39534762948012
C         4.04353311395441    1.68451975683624    1.02322811649125
N         3.37894800177075    2.23189197411135    2.19933306862806
C         3.92865344493689    3.59810252025036    2.44184031917400
C         4.23573502691266    3.85151233658503    3.95533226129160
N         5.17723478097836    2.88487647428547    4.54176128783135
C         5.21784419818009    3.55917682421228    1.65387004998465
C         5.26824625783443    2.44496720668036    0.93731725353353
C         6.27935224829927    1.76775174107117    0.12305266772058
C         5.98414563038435    0.28641730327435    0.46269985938573
C         4.41689218274990    0.22499051304926    0.80203047606714
C         4.14735651149133   -1.17792210502725    1.34750574341148
C         3.99111973102075   -1.88728705233067   -0.00729440199233
O         3.52061371951524   -0.96764628486048   -1.02322673160624
H         1.05140503132231    0.60279980920021   -0.13267394157439
H         1.77714819145853    0.18355967321363    1.44840155000256
H         1.54438197441619   -1.11705247968176    0.17144852496785
H         2.47909486544943    2.38924422524634   -0.45613034024270
H         4.04532704120229    1.89226760140762   -1.20222913629860
H         2.36553248362706    2.09106212243695    2.17950252735491
H         3.22072453757703    4.30832907820275    2.00675234167442
H         3.26608693524849    3.73308037367136    4.45222192911951
H         4.66501024618443    4.85354700103231    4.09301312727777
H         6.11708722295485    2.90669656220304    4.14304501874160
H         4.82333235513691    1.94575518908688    4.34605189059311
H         5.83949371114631    4.43100031685648    1.77643129892003
H         7.27466543323573    2.15263548099225    0.37512672862204
H         6.08111879373370    1.93498650427202   -0.94070257905267
H         6.41265530993344    0.17289598752607    1.46920203661510
H         6.33222648973057   -0.43392602308200   -0.28437387916279
H         3.28673722272267   -1.22664894973251    2.02025566525131
H         5.03104191652789   -1.68225700840674    1.76219427958336
H         3.26461613385995   -2.70716414590920   -0.08198019673753
H         4.98611136627087   -2.20329882636684   -0.32754308842161
