36
 energy: -47.840525175560 gnorm: 0.149136358105 xtb: 6.4.1 (79825abcba525fcdf90b791dcacef51065a7a4e7)
C         1.76019173280162    0.01911280728180    0.62505506007387
C         3.13335252712347    0.11244645325238   -0.07969093143097
C         3.42970465912732    1.54108562267485   -0.49671521739439
C         4.12019745778076    1.76623339301776    0.91803504773660
N         3.30193589222207    2.53717578799153    1.84572504028431
C         4.04597908279691    3.77176879448432    2.23263209529820
C         4.13894140366654    3.90342248921870    3.78929484136173
N         4.47129305301394    2.61022299572440    4.40726180276371
C         5.43706193901828    3.57878830247998    1.67399776113177
C         5.39151476032831    2.44820510207559    0.98323101588278
C         6.41556721298939    1.67641905906402    0.27637454792978
C         5.79938837615168    0.27406863304269    0.05143916547035
C         4.46204524216425    0.28256292575003    0.93836828821286
C         4.32696004571739   -1.10269812816848    1.57174074190848
C         4.12850334417697   -1.94090725069824    0.29851158851750
O         3.51100357495714   -1.11604966563406   -0.72008429605693
H         1.68130635181450    0.78950488298540    1.39975130119156
H         1.67401320101835   -0.93674530052960    1.14387689887322
H         0.94964478327808    0.13918511260831   -0.10874060049363
H         2.56735327562152    2.17076659258007   -0.74096631203060
H         4.08486048359588    1.58792063622300   -1.37836440252931
H         2.36719242034895    2.78474403253906    1.51075937397260
H         3.47114199940478    4.57281883839334    1.76064918049384
H         3.15242985152267    4.22110683987837    4.14568581450292
H         4.82957596326404    4.73721928250269    3.97668091351774
H         5.48433486101729    2.48197912089833    4.39870597715604
H         4.02082639675411    1.76900230562645    4.03993983029941
H         6.18928808039682    4.32977350043259    1.85210666194634
H         7.39810008175215    1.55981295343129    0.74898159626324
H         6.61469775449758    2.20608822343079   -0.66098177214303
H         6.47738414376869   -0.54299271464667    0.33829593864203
H         5.77113103834810    0.05463528001040   -1.02057975201372
H         3.56549035211802   -1.23497906460484    2.34523803899993
H         5.26038111278833   -1.28945487675330    2.12043671699867
H         3.47808928729651   -2.75185762845714    0.65193053713837
H         4.99638309279610   -2.37127602326427   -0.20547105081974
