36
 energy: -47.842848985271 gnorm: 0.135560144242 xtb: 6.4.1 (79825abcba525fcdf90b791dcacef51065a7a4e7)
C         1.80508156345370   -0.21095940539457    0.45273640190811
C         3.18279479695060    0.10706276348827   -0.17313642653309
C         3.29490226491712    1.61510544375632   -0.29955996606925
C         4.05973792488836    1.64277515866497    1.09444539254068
N         3.40876032940629    2.23486293692646    2.25641489301248
C         3.94146462738503    3.62379792250682    2.37725762277587
C         4.08833059167076    4.02987861909716    3.88148581549021
N         5.08120927576765    3.22324882513602    4.60829116065955
C         5.25993715400876    3.55332079336321    1.64167046053483
C         5.30000807134757    2.37948984788980    1.02688038777479
C         6.26343862955994    1.79230073334771    0.09360996595968
C         5.88335583321475    0.29417548401125    0.18314659275605
C         4.46104427409426    0.18454995157887    0.91813921971555
C         4.19241599741728   -1.25924027968098    1.34436156224048
C         4.08715833607105   -1.95099397704741   -0.02439324510133
O         3.59226338586648   -0.99648837128489   -0.99559436494903
H         1.50570106806576   -1.26140669151420    0.53527693262305
H         1.06671924693325    0.31620411496882   -0.15322339413880
H         1.66655812794332    0.13576307816583    1.48736414458713
H         2.35194185004326    2.12115481428823   -0.53311152229782
H         3.93158583952643    1.75820936171062   -1.18436686672222
H         2.39634904226461    2.29460523018415    2.11969755568115
H         3.31867574534086    4.30315985111668    1.78947527122555
H         3.18074022348662    3.90829456423387    4.48368176377036
H         4.50859987824997    5.04508101420480    3.87481108660996
H         6.03811670494586    3.56001469915147    4.49128553329844
H         5.00539062854550    2.27547875466212    4.23215114045363
H         6.02549515746580    4.31184831739224    1.65180200430038
H         7.26863057061168    1.92517000847158    0.51105475501380
H         6.22543548871686    2.30471505629058   -0.87325434407365
H         6.58136744918520   -0.20368865850660    0.87196107510045
H         5.83993930400977   -0.25581744393138   -0.76226168726951
H         3.29906972578615   -1.32044017097300    1.97191189114694
H         4.99204701606009   -1.72184127056985    1.93918154730268
H         3.34569624493666   -2.75435897524441    0.07769770894829
H         4.96202375248121   -2.44198124445117   -0.45563916843477
