36
 energy: -47.839983489294 gnorm: 0.132618564183 xtb: 6.4.1 (79825abcba525fcdf90b791dcacef51065a7a4e7)
C         1.75797593990234    0.13014310259760    0.61160606289502
C         3.16254670742280    0.11466729169559   -0.03483814421480
C         3.45147073596903    1.45846418384687   -0.67785955568845
C         4.19112264997869    1.85717837628166    0.67230050560872
N         3.39843732096233    2.45046959104216    1.74195856840674
C         4.02788054860480    3.72279199539472    2.20295114746635
C         4.07327747270811    3.65321948992607    3.76572829059725
N         4.28303760276229    2.33944423267618    4.39398061708053
C         5.39423067725369    3.58909239849081    1.57078259988222
C         5.44081958083492    2.57983062213137    0.71248674031668
C         6.44423532135850    1.80332358963742   -0.01838731980609
C         5.95774770684884    0.34209496144527    0.13972563545167
C         4.54028602933472    0.39121596460784    0.89045301465241
C         4.49211697549914   -0.86196258043271    1.76542736901370
C         4.01028144391368   -1.88911919707604    0.72818300447327
O         3.52921734361748   -1.20802701734458   -0.45669013212534
H         1.39919012604369   -0.85182389645580    0.93855357277397
H         1.07885050646910    0.57936208803692   -0.11451962285182
H         1.76172700887166    0.67955456890185    1.56449260331390
H         2.54784752838177    2.06712974764315   -0.79098761747337
H         4.09816060012741    1.39496600665280   -1.56470123331831
H         2.40939175779510    2.55953067931271    1.50293567624009
H         3.41530802244990    4.55822753102498    1.85411150701972
H         3.10081599693474    4.03426834686311    4.09778757228561
H         4.86169209512304    4.28550157448991    4.19692254271745
H         5.10931620264066    1.90963812359823    3.97528767015174
H         3.48239709955741    1.74448741078132    4.16926066952677
H         6.16421925991428    4.19496926974801    2.01975534653620
H         7.44798878853037    1.94700119589978    0.39893865512082
H         6.44862921717538    2.24925192604633   -1.01837126192726
H         6.74575730816281   -0.27165915723316    0.60005276787906
H         5.69181565754047   -0.01647847482438   -0.85971383831387
H         3.77421617597129   -0.72466423546370    2.57869239760401
H         5.47642387646225   -1.14518996991515    2.16309861148814
H         3.26455618425574   -2.65691571854444    0.97306308763100
H         4.93905787895807   -2.32301303640279    0.35196298414512
