36
 energy: -47.848004144944 gnorm: 0.139105821607 xtb: 6.4.1 (79825abcba525fcdf90b791dcacef51065a7a4e7)
C         1.83576832070716   -0.01155759116985    0.47103431111687
C         3.22247701239007    0.11492883178468   -0.20126681103730
C         3.38367162309023    1.59887964801877   -0.47448822627444
C         4.03157161404742    1.78656903990047    0.96564656318705
N         3.17127397305464    2.42057841778545    1.95682397963574
C         3.82578255876704    3.70176174723313    2.35394474835427
C         4.09528715965730    3.47743585091777    3.87913938250590
N         5.31773500707225    2.71479838265884    4.17698336558362
C         5.15446926570129    3.65694277111805    1.63491202485256
C         5.27111471115274    2.52744307940815    0.95075147957224
C         6.30774108163805    1.83038191678520    0.18688340514125
C         5.88903474164514    0.34067477027831    0.23501344612562
C         4.44543249864814    0.32152005952484    0.93561858963422
C         4.21265890092110   -1.03038715637945    1.61128115555037
C         3.98369444111864   -1.94151681397811    0.39451905299882
O         3.65204903110155   -1.13501516554916   -0.76254618260625
H         1.47242603077276   -1.04150444406301    0.55513526896893
H         1.13937871465898    0.52259914544600   -0.17702868893771
H         1.89752328906123    0.42465839008135    1.47888435973405
H         2.41649581639401    2.08713004190459   -0.63569951521611
H         4.10750027783910    1.88658586073565   -1.25039099860265
H         2.32720835182981    2.61640022426542    1.41235691772442
H         3.20357248303713    4.55123941406032    2.06046737302363
H         3.19308955520221    3.02569310139768    4.30705393768847
H         4.22515627970251    4.43792644081407    4.39672855030625
H         6.07647412922518    3.24257564296556    3.74277200881406
H         5.27372555282717    1.89578522388448    3.56642747266099
H         5.86234546502499    4.46289641084626    1.73929405115535
H         7.28473894342172    1.80236470931534    0.68388981866522
H         6.40916661933600    2.21046672308076   -0.83492263933788
H         6.53982211814407   -0.24947696623998    0.89664097233554
H         5.74591524021175   -0.17935574503835   -0.71748802136521
H         3.32580856471616   -0.97281389723116    2.24831657991760
H         5.13010133591292   -1.28268192887522    2.16070531425178
H         3.20818943919324   -2.69756156714264    0.57499679683316
H         4.91900540450828   -2.47553662205249    0.21438781774737
