36
 energy: -47.815835431111 gnorm: 0.142622773586 xtb: 6.4.1 (79825abcba525fcdf90b791dcacef51065a7a4e7)
C         1.98159987946044   -0.57286152758103    0.69333790396608
C         3.24924519577415   -0.08048205136128   -0.04258768023533
C         3.27893813068501    1.41588898647163   -0.29305872696261
C         4.11927638286425    1.57939283370471    1.04712342367352
N         3.30548058410635    2.20596705729145    2.08136424930026
C         3.83548651710761    3.55996228421938    2.41797658266750
C         4.57355293062271    3.62570670600118    3.79642108126426
N         3.68649106775162    3.92374733600402    4.93176188747260
C         5.00909029035176    3.69884499342818    1.47574992310614
C         5.18011629590635    2.54020476284292    0.85465852776219
C         6.11201549634403    2.02833063480552   -0.15208470477773
C         5.77737672382758    0.52220225262844   -0.28035471047367
C         4.66736419670427    0.17614139520499    0.82568152895329
C         4.91677519329019   -1.22551381611028    1.38381570927047
C         4.40776740719898   -2.00757360540900    0.16218334879218
O         3.62522559149725   -1.24694694797887   -0.79086909931922
H         1.39442396550409   -1.14515283059791   -0.03301478463992
H         1.48948476062399    0.28268448622532    1.15823712755700
H         2.20709040680006   -1.27694337729114    1.50775951223664
H         2.25804221606382    1.79891885745224   -0.18881730624648
H         3.81480985495945    1.84138259747950   -1.15359613979423
H         2.32397692212297    2.24464032690073    1.79432361725395
H         3.08513746352765    4.34934334836310    2.32448563930403
H         5.38171250645827    4.36514656536232    3.76106985603740
H         4.89655649335401    2.58216989889228    3.67807263885704
H         3.79040248546555    4.85866117913954    5.32914321814698
H         3.96411168782433    3.17424932231094    5.56947452392069
H         5.62586816220250    4.58072371330397    1.41726325717668
H         7.17432808389337    2.11936454649286    0.10390364350839
H         5.84410593403882    2.60792886415419   -1.04153938150067
H         6.64442257251802   -0.12513728878325   -0.08353669546005
H         5.46855489214025    0.37331724338257   -1.31989131986763
H         4.34649154993510   -1.39189333743641    2.30181724552491
H         5.98422966036948   -1.47822139248874    1.44626637918235
H         3.81162444796860   -2.86176811495279    0.50938534409977
H         5.24810507176325   -2.32467813265632   -0.45887088629576
