36
 energy: -47.844428611101 gnorm: 0.131814400640 xtb: 6.4.1 (79825abcba525fcdf90b791dcacef51065a7a4e7)
C         1.69980839947512   -0.04411256611424    0.32938262930557
C         3.16681228014024    0.12426198442925   -0.12941825753578
C         3.45307414446199    1.56326365426906   -0.51680956152512
C         4.10857608687263    1.75913290854718    0.91878876776860
N         3.23722662262441    2.36400543427406    1.91848484255688
C         3.91165780070237    3.65884752602370    2.22839418391337
C         4.07158755844672    3.90944811427491    3.76488220861601
N         4.98984825287193    2.96617310671329    4.42194787303808
C         5.26710150031412    3.57190131772141    1.56534208209091
C         5.37527028339405    2.45073184931130    0.86624966874733
C         6.43104006839796    1.67806214438210    0.20874306392440
C         5.91938475020542    0.21758290727267    0.25422109689746
C         4.46499803869912    0.27879624363037    0.92965747563174
C         4.34087642130936   -1.07511775716306    1.62956286397253
C         3.99120458904873   -1.92844116332587    0.39966009186954
O         3.49208334697723   -1.14661058852431   -0.71337742028523
H         1.62862548878154   -0.94995068787227    0.94115987823270
H         1.00990630716316   -0.08005940688897   -0.51501685078151
H         1.29961803701234    0.75155293433615    0.97484669784580
H         2.56078766322288    2.18001404954349   -0.66929039453965
H         4.22551299134077    1.67328152968388   -1.29138185600016
H         2.23360618473667    2.39329578492777    1.72068318800868
H         3.35289406239887    4.55338614459596    1.94121743786574
H         3.18241696317643    3.79495565827382    4.39528688789276
H         4.43065940245601    4.94469838205741    3.84631334779696
H         5.94796913772266    3.08403887840659    4.08895323100458
H         4.63649773292390    2.00684734235038    4.40363448220086
H         5.94515883379801    4.39478760281480    1.72232029992496
H         7.32176586718425    1.65446067430953    0.84778592181913
H         6.69566788687305    1.98650658329134   -0.80795425638452
H         6.59058182043857   -0.36755594307920    0.89971418972868
H         5.87284073650990   -0.21281990588324   -0.75114505703888
H         3.47529356888569   -1.11791210894351    2.29632171170833
H         5.21684826219391   -1.33226665821985    2.24092856163266
H         3.22126620964920   -2.63446969287842    0.73774664246524
H         4.83725317203491   -2.46443640986506   -0.03547428003972
