36
 energy: -47.838773111940 gnorm: 0.137421408405 xtb: 6.4.1 (79825abcba525fcdf90b791dcacef51065a7a4e7)
C         1.79145705695595   -0.14751013260887    0.47632215038717
C         3.20540408148405   -0.00438514802106   -0.13295423132219
C         3.35293171091011    1.45345278371645   -0.52752728472163
C         4.02197350859398    1.83451132437729    0.86393510915142
N         3.29692871744832    2.63336819100569    1.84406298446048
C         4.13407889075945    3.79095025960505    2.27615160961387
C         4.29697392328524    3.75409308357421    3.83219799679901
N         4.28951269523865    2.44125106128609    4.49634848776016
C         5.43878083042663    3.54150043818057    1.55507398282423
C         5.26810341340334    2.54515122279243    0.69739743199337
C         6.26343159937995    1.84165179215406   -0.11401709670327
C         5.88364856443175    0.39904517718633    0.30012056574261
C         4.42371182106895    0.36930966216564    0.96562984686894
C         4.18245654889409   -0.92188408372619    1.74855479030733
C         4.22520184618415   -1.87752813641515    0.54522218842472
O         3.75224363455085   -1.22381845631860   -0.65819285260928
H         1.45474439978200   -1.18971188113664    0.45839942495171
H         1.11211306803797    0.36162049719383   -0.20891161247069
H         1.89284896731749    0.38601622367963    1.43284141079076
H         2.43993346605121    2.01074882052821   -0.76345515892172
H         4.09677912296545    1.72555122040199   -1.29001100283904
H         2.37131534643985    2.92842735293966    1.52247726981615
H         3.70426711869404    4.75725391480548    1.99973560297346
H         3.47542350791263    4.34355878952625    4.25496035787639
H         5.16693852813838    4.38751009011749    4.05412413759117
H         5.15492504148142    1.95945409692541    4.24794044624822
H         3.52846651827917    1.92602352913181    4.04818869985703
H         6.29269702645592    4.19257761892163    1.64711389331896
H         7.30875750198681    2.02933721766061    0.15873403848140
H         6.19215581763183    1.93886392355432   -1.20227664253984
H         6.62625541523950   -0.06404361160597    0.96618224318671
H         5.95456020775891   -0.22185228514617   -0.59856286675447
H         3.29822749699114   -0.93025884597300    2.39175091697000
H         5.06568169072511   -1.28967032561306    2.28880184282432
H         3.64571025060997   -2.77612059576448    0.79483187745538
H         5.24500280011553   -2.25633964460830    0.45067647710886
