36
 energy: -47.844862898850 gnorm: 0.124433885602 xtb: 6.4.1 (79825abcba525fcdf90b791dcacef51065a7a4e7)
C         1.68867942865933   -0.05950866566964    0.32531448617480
C         3.14873851047013    0.08001359852203   -0.16428699147430
C         3.47356236229146    1.52582482179500   -0.49118611455559
C         4.13678069160490    1.70834013616403    0.94262681560959
N         3.38424167539843    2.37980441338002    1.99492588990491
C         3.96880313018061    3.73359291897483    2.22527711370338
C         4.09010504556255    3.99493742885520    3.76350934170544
N         4.79059967277073    2.98341310259763    4.57025062241240
C         5.33374007472797    3.58907874580237    1.59243594507088
C         5.39379528906224    2.41868574198544    0.97273847866347
C         6.39577532454200    1.67578421434870    0.20585109102642
C         5.90757345402140    0.20948214185313    0.29791654192734
C         4.42829979444443    0.21399961388140    0.91995426971779
C         4.21461584893322   -1.13377758014626    1.61002120941853
C         4.03125454133245   -1.92878450703311    0.30716487679036
O         3.59356152930149   -1.12117398785254   -0.81329200647186
H         1.45075572321549   -1.04889068866417    0.73077302845172
H         1.05688011642380   -0.05750708106207   -0.56411970126535
H         1.37102898788029    0.67385320423603    1.08105143706178
H         2.59900487249527    2.18525063095182   -0.50183378143970
H         4.14532938887671    1.79590616302646   -1.31853913808642
H         2.37489266944003    2.23184524246336    1.91393218832814
H         3.40966892595957    4.59901268867461    1.86016862292085
H         3.07594978875729    4.06344021576301    4.17331341255896
H         4.67281190600829    4.90460906525835    3.96415064687973
H         5.74864297409084    2.91254561778323    4.22397872726921
H         4.40296622733667    2.07024313628589    4.32254352028514
H         6.12765932444847    4.31486278267032    1.65933395058211
H         7.43548270949322    1.86076597912528    0.50100437019732
H         6.21455506064728    2.02772878321215   -0.81499828226383
H         6.62663942176302   -0.13012702662683    1.05762965350908
H         5.97981937807246   -0.28665667016587   -0.67512034166026
H         3.36085913521317   -1.15947786086621    2.29271535605179
H         5.17621647872760   -1.41829947219147    2.05901085851523
H         3.25696353001710   -2.68053084654235    0.50948830484384
H         4.94502850318725   -2.40722097967925   -0.05136923165839
