36
 energy: -47.840577228876 gnorm: 0.125906284772 xtb: 6.4.1 (79825abcba525fcdf90b791dcacef51065a7a4e7)
C         1.66859327200916   -0.06809018570820    0.34045013652037
C         3.08133385681950    0.24426273748978   -0.20502980284891
C         3.36111431188543    1.73399665869578   -0.27685931786228
C         4.13667334446281    1.66655979250425    1.10984562768280
N         3.49550227381817    2.25862804561573    2.27726490328919
C         4.09628402039264    3.60491723456948    2.50982449944790
C         4.18541269665095    4.05744222976363    4.00530129102993
N         4.85971078475963    2.97144927849634    4.73375658661545
C         5.40359812953817    3.45116373253655    1.76704928694763
C         5.42214508419055    2.32350726023666    1.07027204406227
C         6.40275539241876    1.69249948112999    0.18471243320345
C         5.76875414970670    0.29285504669797   -0.00475232001449
C         4.40402441085397    0.19321415564915    0.83357132123392
C         4.36299996916655   -1.28095594555585    1.23791821066382
C         3.96937850598622   -1.86346626442442   -0.12913553895879
O         3.47459871967150   -0.85366882335441   -1.04277423915661
H         1.76524855066284   -1.05548917631720    0.80475834609696
H         0.89118271459872   -0.21649978838576   -0.41046595989705
H         1.31391158128035    0.47528657449426    1.22859561415895
H         2.57099290872155    2.48659386296176   -0.37231744969336
H         4.04694698742798    1.90593107445994   -1.11876195949679
H         2.48304256051404    2.31184769017781    2.13823111111983
H         3.44068061581043    4.31709136908661    2.00200671225681
H         3.18514960314914    4.21176476623700    4.42577866589459
H         4.69623892216217    5.01563151298135    4.17333879522515
H         5.58376569172511    2.56028221736453    4.14260555821277
H         4.13031096774531    2.27845847732518    4.91606825702555
H         6.24025452049175    4.11211848087973    1.92418180701116
H         7.39302362490616    1.61079920150674    0.64841399830170
H         6.40411239411867    2.18091953817054   -0.79522801585654
H         6.49443363670910   -0.46388302158776    0.32734871337859
H         5.55574827886353    0.10323722690464   -1.06156243168198
H         3.67498280523264   -1.42575363601224    2.07535383322644
H         5.30640462457348   -1.65257051662704    1.66113273032799
H         3.16631126316780   -2.60970135241683   -0.06749046057594
H         4.77847440700827   -2.35924497983154   -0.66950423644913
