36
 energy: -47.841882026158 gnorm: 0.134961810737 xtb: 6.4.1 (79825abcba525fcdf90b791dcacef51065a7a4e7)
C         1.81027656550739    0.03926643247016    0.54790812478475
C         3.17585982372852    0.15200397910380   -0.16862607893338
C         3.33255425706742    1.57684017653156   -0.66665458126862
C         4.06218316729475    1.90561495230860    0.70758665340495
N         3.23791492652095    2.60265418629458    1.68699008386592
C         4.03774875830318    3.63327608319051    2.41197394476520
C         4.05869877254871    3.31273396699438    3.94363561431507
N         4.94089055046864    2.28678198738317    4.52144694300561
C         5.39683766633567    3.50081664053245    1.76408724890658
C         5.33166355087501    2.58704610214903    0.80584543454803
C         6.38585497937809    1.89690739477985    0.05994181105531
C         5.90753900324978    0.42726181490069    0.15057685407608
C         4.47053026510937    0.44713820607305    0.86458869694570
C         4.30685637939607   -0.86782124782779    1.62777240141098
C         3.97980459050931   -1.81834621181774    0.46474553368036
O         3.50931757535201   -1.13093079595693   -0.72072297887163
H         1.16324955674440    0.86834300537524    0.24152730435735
H         1.91323975769233    0.12064516202769    1.63097952001413
H         1.35257385264625   -0.92510337234081    0.28265561412803
H         2.36352323231617    2.08674326705885   -0.69466072114207
H         3.94563759212977    1.71011050812108   -1.56948114804453
H         2.31319705502720    2.94853365304012    1.41772876758639
H         3.56580590734520    4.60738685717861    2.25944565845675
H         3.04589302217115    2.91675774715821    4.07990836897084
H         4.19085133919217    4.22094015908030    4.54779118014328
H         5.89558297660296    2.64782016407208    4.55286679656124
H         4.84291433475680    1.48535469763227    3.89406121601018
H         6.30082019099249    3.99554560602838    2.07968916879111
H         7.44239045473285    2.06152554948906    0.30275637936760
H         6.42895720409385    2.17631387509895   -0.99784526273389
H         6.64976703838977   -0.25274336823117    0.59357213478012
H         5.67273795357099    0.09927756406050   -0.86700303226528
H         3.49513634253476   -0.83183126575349    2.35951532800961
H         5.18593986050479   -1.18501047702146    2.20554699795086
H         3.09493335480406   -2.37454282260328    0.80124537106349
H         4.75691350275058   -2.52392165097480    0.16358763887361
