36
 energy: -47.842827885861 gnorm: 0.139211347241 xtb: 6.4.1 (79825abcba525fcdf90b791dcacef51065a7a4e7)
C         1.78922414158308    0.05215233280573    0.46929417673358
C         3.17064127428540    0.18007685285700   -0.21354593633626
C         3.49359940264218    1.62690533338221   -0.53778205099771
C         4.16063940400432    1.77336606169619    0.89839230466717
N         3.38177971480175    2.30100935137656    2.01171288777465
C         3.95405639318067    3.63728069456295    2.34993677954050
C         4.12943147658295    3.80944833778574    3.89550313992817
N         4.65623699017207    2.60144874115022    4.54965801874253
C         5.33827746504225    3.55170740881840    1.74907541380231
C         5.39926075013956    2.51547083401172    0.92448695239862
C         6.33181616132077    1.80666866947355    0.04589557755421
C         5.89789048683065    0.32633044346145    0.17691509634912
C         4.45227040825384    0.27910830408864    0.87200829618398
C         4.29221166921666   -1.08694344658683    1.54031987463723
C         3.94341797802017   -1.89520677939556    0.28010349081016
O         3.62444228040340   -1.03072651017717   -0.83800290558421
H         1.41369630863857   -0.97591851797134    0.42535921697323
H         1.09669698325937    0.63605745677106   -0.13875885805010
H         1.75821075436610    0.43561251060558    1.49975826474968
H         2.67105590933839    2.32238756879676   -0.73661167423592
H         4.19586040516604    1.57226281611205   -1.38192159560803
H         2.38917351346134    2.37356423465552    1.77358259896471
H         3.31735588441922    4.38804231047205    1.87469357365710
H         3.10443956666657    3.87379131900928    4.27811842982902
H         4.63329140544067    4.71627571861969    4.25757491860232
H         5.66924244599126    2.50968057703942    4.45925921995088
H         4.35101903898856    1.71451500779610    4.14260957276260
H         6.11018519645053    4.25036275197382    2.02761578338955
H         7.36214172892663    1.98186440497229    0.37764975341573
H         6.15067132828353    2.08442225780054   -0.99759792293842
H         6.47872049257649   -0.23987357209796    0.91961542669672
H         5.85146205495473   -0.25048341999585   -0.75222651555678
H         3.54096441498171   -1.03276388156321    2.33298907509133
H         5.24080463303559   -1.28206796330348    2.05927843937239
H         3.17412194530370   -2.66990116614647    0.39679159111875
H         4.85421922123089   -2.35238586125728   -0.11214566113027
