36
 energy: -47.839541485383 gnorm: 0.141853943244 xtb: 6.4.1 (79825abcba525fcdf90b791dcacef51065a7a4e7)
C         1.77249819106243    0.09690343543428    0.56095048167939
C         3.16913133601396    0.13150105037504   -0.10174662936403
C         3.39296864710374    1.54933347684127   -0.59407957682805
C         4.09056065858007    1.92514003582453    0.78473321902911
N         3.18945726966556    2.55306011676478    1.74298248656284
C         4.00096302991478    3.62394999285531    2.39272888633345
C         4.15137020186754    3.32027295774570    3.92058079025264
N         4.87469496721265    2.07964737696768    4.24051067948519
C         5.35685460465507    3.55593937625646    1.72838127718496
C         5.35259497260290    2.62717093034202    0.78243075524169
C         6.33716913279881    1.98453752375444   -0.09027707543392
C         5.87350125047098    0.52150101290826    0.11318091914865
C         4.47833684540076    0.45746392870669    0.90350835959645
C         4.46308292079944   -0.84629281162757    1.70247160734207
C         3.99414635877792   -1.86845128028166    0.65443412483746
O         3.56101877789659   -1.17750816405852   -0.54315998721328
H         1.74032282750124   -0.43988847437255    1.51525666895292
H         1.11499777045881   -0.41593537618007   -0.14258139553794
H         1.33064396775844    1.08692788501770    0.74662818568400
H         2.52188967914035    2.18915544588433   -0.77200047821346
H         4.01226090900264    1.43079010691678   -1.49471960255497
H         2.26433648669877    2.78617525683560    1.37278499165150
H         3.44491952618010    4.55656697792814    2.26652336781203
H         3.13284734965765    3.34874705745539    4.32424317333780
H         4.65663038291363    4.23900550507998    4.24913727554686
H         5.70506757296279    1.95765519889936    3.65881261622009
H         4.17554009672941    1.37382600217446    3.99865010238485
H         6.08946945184585    4.32987324175923    1.88915268297111
H         7.34304063861713    2.18881786696436    0.29549127520171
H         6.31894231200029    2.21568922947149   -1.16035924980048
H         6.57823800851394    0.00228430966729    0.77899950313525
H         5.74523036149567    0.00076245071913   -0.84104751831976
H         3.72891704987706   -0.77206198277659    2.50939328567903
H         5.51332375792950   -1.02372895366323    1.97215806407371
H         3.13190529651350   -2.36781586208403    1.11569247110404
H         4.73543688169612   -2.60888013473596    0.34672567828971
