36
 energy: -47.843766927639 gnorm: 0.124399736402 xtb: 6.4.1 (79825abcba525fcdf90b791dcacef51065a7a4e7)
C         1.68080696010243   -0.02868976150669    0.21359937571297
C         3.15946486777417    0.14232440723090   -0.20505746075051
C         3.40440976518776    1.62127053687972   -0.44056543901476
C         4.09559488759142    1.70305061121406    0.98931744659769
N         3.40624666982479    2.30133935198803    2.12569864353217
C         3.96870534094324    3.66752966778482    2.33707833984293
C         4.21684849334656    3.93849786682186    3.85831951484439
N         4.95339099500429    2.93649205000653    4.64457339715264
C         5.30125893876118    3.57042848885972    1.63046852082903
C         5.33270317977440    2.44571926704945    0.92940375897935
C         6.33614870287373    1.70491169962487    0.16240690148351
C         5.84072774925068    0.23827195366978    0.14279009819209
C         4.42593754101787    0.21932932050999    0.89989759420369
C         4.26162820171767   -1.17359282601998    1.50909946569025
C         4.00825433695865   -1.95688539636250    0.21089053150205
O         3.60168181702983   -1.06068015556160   -0.85247605715658
H         1.52507146323072   -1.01871565783261    0.65572638140772
H         1.04659214636213    0.00478256030488   -0.67348502058045
H         1.35931647978110    0.69849579231923    0.97366833148691
H         2.55582440167176    2.31298264637062   -0.47583313245635
H         3.96861724953181    1.88976610008695   -1.34516918635622
H         2.40600126138451    2.26186000054460    1.91312434950169
H         3.33063874047919    4.47224691187269    1.96266169256227
H         3.30800019546481    4.21141655070353    4.40663790351871
H         4.77548889801745    4.88047728037811    3.94721489874738
H         5.78094832521243    2.56101110256321    4.17880916964783
H         4.36755626671275    2.10700743024084    4.76395019574338
H         5.95448325908012    4.42197059504060    1.72905665025197
H         7.20104601849737    1.77225182162265    0.83303580115738
H         6.58490226859728    2.17587981458136   -0.79422776899915
H         6.52299050798114   -0.42843967986185    0.69011759428092
H         5.67885313933792   -0.11622873880104   -0.88009789578376
H         3.46783079071528   -1.16236124723294    2.26102489867056
H         5.18742692763480   -1.46277719440843    2.02532548518261
H         3.26877482716192   -2.73629289811588    0.43733676859402
H         4.99939987449999   -2.39054990312860    0.06257789290747
