36
 energy: -47.842204409814 gnorm: 0.140533154850 xtb: 6.4.1 (79825abcba525fcdf90b791dcacef51065a7a4e7)
C         1.80002662740376   -0.15070142530075    0.52677492735312
C         3.15146748669035    0.15030741327213   -0.16166529216620
C         3.41913508451341    1.63512582737796   -0.32418315921534
C         4.19565435481970    1.68296338078038    1.06279899472449
N         3.41246126798159    2.38510449412714    2.07181798277965
C         4.00881929317344    3.73689788671414    2.28283683947820
C         4.10915065996366    4.11684887962197    3.79767823631943
N         4.66383373779975    2.94186189617388    4.48792310906514
C         5.33348353471149    3.61216969482249    1.56580627634202
C         5.43190957052930    2.42524547194225    0.98359084824091
C         6.40530023343937    1.71086487156730    0.15524662469714
C         5.87755043340104    0.25722533438820    0.22784995869240
C         4.43450511836417    0.18535349280212    0.92617419201361
C         4.22433502652739   -1.24563897052812    1.42260743005475
C         3.92947092911477   -1.97823006450582    0.10372247568470
O         3.46822276634490   -1.04014434951189   -0.89951174451494
H         1.02337277785853    0.20340552170652   -0.15973668070718
H         1.75193398384538    0.35653036846279    1.49148761412377
H         1.78440610478758   -1.19692028322368    0.86595318211623
H         2.55250688322059    2.29424653976856   -0.44385800904675
H         4.16126354524574    1.87813828463798   -1.09808123938157
H         2.40226447815204    2.34076616283409    1.91442056336790
H         3.34504688790828    4.41284709251553    1.73750613338387
H         3.08998803734430    4.29882333799385    4.15731105022711
H         4.71816367780693    5.01108570086731    3.98938212774701
H         5.68230173159273    2.97976934762192    4.55163628521966
H         4.43807487891281    2.10046809494145    3.95258462066413
H         6.08650170573371    4.36282391976278    1.74195273486553
H         7.41332917006049    1.69379516700538    0.58642121098622
H         6.47786735609129    2.13237721627573   -0.85267233319706
H         6.53273245199986   -0.30301771186533    0.91079839123628
H         5.99196764576605   -0.31479961413378   -0.69836286256869
H         3.36658335753365   -1.38154911155414    2.08700408263566
H         5.14005166505275   -1.73137284002442    1.78695053337131
H         3.13570465216003   -2.72413605315555    0.24208167742763
H         4.85596052723823   -2.49168190225220   -0.16163628261742
