36
 energy: -47.845789806111 gnorm: 0.125434455038 xtb: 6.4.1 (79825abcba525fcdf90b791dcacef51065a7a4e7)
C         1.73536073970224    0.09521971858489    0.42443944909624
C         3.13209625474338    0.16087665940083   -0.23568760431072
C         3.44145489721998    1.62066557480619   -0.51147245645033
C         4.16631608167256    1.72638474232061    0.90004795218168
N         3.46044620763771    2.17747423217950    2.09285089455155
C         3.98243275781690    3.53216797651117    2.43904755943473
C         3.96237532875654    3.81906274241595    3.97737870311486
N         4.95649112917463    3.06142886662206    4.75354260884217
C         5.36041484395191    3.45375294862161    1.82305910275655
C         5.39683590504856    2.48197688525812    0.92207274182666
C         6.42067645769633    1.74965291993614    0.17411863548957
C         5.80835884045016    0.35043681243054   -0.07910148969822
C         4.46388126646389    0.23714969116247    0.78966094117290
C         4.32236472172893   -1.14083311607227    1.43734395784841
C         3.92271030774996   -1.94134050605048    0.18732142538010
O         3.50029567154643   -1.06505308788751   -0.88641961017076
H         1.15352366192480    0.93656683725554    0.03267196412174
H         1.73647786349752    0.13751815745500    1.51461244432603
H         1.24552592121272   -0.85835004421794    0.17821526774422
H         2.52777652913762    2.21675414934976   -0.60984360095443
H         4.10451199619824    1.87835731458447   -1.34973149216493
H         2.47056768725138    2.24458311283722    1.84210342493655
H         3.29855733146531    4.15595064169100    1.85758706272113
H         2.95649100667102    3.58513639819781    4.34428212003670
H         4.14012452982729    4.87536197567288    4.22221310941410
H         5.90025416251870    3.02948619493859    4.36487256464810
H         4.74379052205751    2.08054476923405    4.94879303875393
H         6.12045908777164    4.16336639548747    2.10647969060186
H         7.35871323423524    1.57767786869522    0.71526264165334
H         6.70677820500138    2.21875327161567   -0.77294521185330
H         6.56836700103859   -0.38142009510725    0.23126503460710
H         5.56652790088328    0.26384386318305   -1.14314730082637
H         3.47486864023608   -1.24908559571474    2.11973987945079
H         5.28975726162753   -1.44280270865786    1.86182750614367
H         3.12611222846069   -2.67898425220039    0.35132483502445
H         4.75687237629359   -2.44390053383095   -0.30668069701250
