36
 energy: -47.844836633804 gnorm: 0.150397909376 xtb: 6.4.1 (79825abcba525fcdf90b791dcacef51065a7a4e7)
C         1.83043196047549   -0.07049401663713    0.65529297808058
C         3.11796775459422    0.17093728141293   -0.16623679199501
C         3.36377914858611    1.65718280012310   -0.34897909342322
C         4.16592787336036    1.69017954929519    1.02377681113568
N         3.37343506005133    2.42091556211571    2.00484405289202
C         3.99781501375826    3.75364713109414    2.25282283112971
C         4.01100209609462    3.93360689827391    3.80736912708975
N         4.76772907271270    2.90479191805322    4.53785508697043
C         5.36332262210200    3.51486264053294    1.65049712387091
C         5.44053823833017    2.36825358705155    0.98960602211795
C         6.54749900569234    1.59591702562500    0.42205223490740
C         5.85376623120575    0.26282852967640    0.04993812992000
C         4.46147302974086    0.20708229100481    0.84593693269000
C         4.32705157805461   -1.22722865133966    1.35881106383643
C         3.98185119505270   -1.91418865004190    0.02764062674433
O         3.36275160688941   -1.02023625239810   -0.92985526856742
H         1.65462698214909   -1.12071649560830    0.91221023334200
H         0.99719480281441    0.30375909647484    0.05870433452073
H         1.94857899023109    0.50259589966285    1.58667314500828
H         2.45254652247535    2.24247911973807   -0.51296066077436
H         3.98940885790129    1.97496915033362   -1.19534028000289
H         2.39874119571956    2.63310004818499    1.77639928545533
H         3.47394724062319    4.58780008489244    1.77886277785243
H         3.00769267929536    3.87292641762508    4.24421121812681
H         4.36478873708036    4.93139472156414    4.10158198094193
H         5.77012052106600    2.95308074986766    4.34903514061328
H         4.38718030544746    2.02438475708443    4.18350532302983
H         6.17290009633280    4.17951462716788    1.90420515498697
H         7.29045995953521    1.47631362999820    1.21956668025767
H         6.96465626946477    2.06336038032074   -0.47589865662346
H         6.48514297350165   -0.60684695614934    0.28356663195582
H         5.71328584850996    0.21349677041092   -1.03449982281639
H         3.53963704811815   -1.20802471440957    2.11725814084517
H         5.27065695563185   -1.54736047144316    1.82178488799172
H         3.13776798040809   -2.57982695556706    0.25132139859190
H         4.70017356586527   -2.46195997879966   -0.58586616563907
