36
 energy: -47.843872542508 gnorm: 0.130038503225 xtb: 6.4.1 (79825abcba525fcdf90b791dcacef51065a7a4e7)
C         1.73643885867702   -0.09583905773577    0.52398640333253
C         3.13529732550201    0.09919394506202   -0.10538294734500
C         3.38511192707626    1.54321310289122   -0.49926752991841
C         4.06980256460327    1.86440483041356    0.89966947698698
N         3.23322300258016    2.65112498860183    1.79728795567604
C         3.99693652395347    3.82796976939389    2.30649839107589
C         4.16453555654671    3.58450036498795    3.84331549483440
N         4.69962114165469    2.25219093831900    4.16478201752224
C         5.36423734221154    3.60421296841110    1.70247299377534
C         5.35914429960271    2.51300313597262    0.94968697954542
C         6.46227547678343    1.78774304980567    0.31637613990617
C         5.78965999320438    0.43083757884565   -0.00495696006188
C         4.45892237427897    0.39231000586647    0.89106486927333
C         4.32616023483707   -0.93289622303062    1.64243663604707
C         4.05601117939224   -1.85567230150321    0.44302183362859
O         3.57481979542030   -1.12570047174849   -0.71232640752548
H         1.54184966185797   -1.11922161829536    0.86266663936094
H         0.98457305695160    0.07400585395998   -0.24810043547703
H         1.62119539182480    0.57612951883232    1.38714164210078
H         2.47245978529192    2.14874531483390   -0.48500465481247
H         4.06020304965123    1.65243263945536   -1.36011073594886
H         2.33220237620150    2.91200314343123    1.38821361066757
H         3.60676537350517    4.83347110957479    2.12867753483999
H         3.20422890219204    3.70092949952855    4.35848372343257
H         4.76559107625359    4.42167477565494    4.22433780094536
H         5.70974067808082    2.11916781430319    4.09595782067247
H         4.31928252091158    1.62877410782838    3.44910619853794
H         6.29600086758478    4.07396712416453    1.97209027336529
H         7.26217069179671    1.62497009728276    1.04849488213084
H         6.91946401032524    2.29342542911295   -0.54042211898407
H         6.41721591558108   -0.42635690905119    0.27955225490709
H         5.61743768426919    0.40445859900522   -1.08561308541130
H         3.47270804891714   -0.87958673418337    2.32391287951344
H         5.21613123454692   -1.16390388909725    2.24394086435797
H         3.27921907606586   -2.60165304197232    0.65677561495648
H         4.97639603819138   -2.40145966327657    0.22521709590686
