36
 energy: -47.843294936431 gnorm: 0.144324339405 xtb: 6.4.1 (79825abcba525fcdf90b791dcacef51065a7a4e7)
C         1.84920006272409   -0.10221797717243    0.72923893145543
C         3.13808045875469    0.10033979176504   -0.10064439080221
C         3.28759736858923    1.57859309837914   -0.40911737041375
C         4.10147973752817    1.73016887861312    0.94867878947653
N         3.43813271369116    2.38261182388173    2.07064216625379
C         4.04728707850302    3.72560776901629    2.30044661947632
C         4.31454674516182    4.00944938996287    3.81609163292644
N         4.17633920149058    2.82786031908122    4.68180039481835
C         5.38590787966872    3.54775021064773    1.62156051384066
C         5.34611482850072    2.45810096844948    0.86754947009285
C         6.37558928070099    1.78316044697779    0.07469334455724
C         5.77926835100431    0.38523293045988   -0.22036429304189
C         4.54651472067024    0.28140716057444    0.80176132086624
C         4.65426274712131   -1.11439119063152    1.41698012953274
C         4.16439135822562   -1.96556375565025    0.23434605227230
O         3.42889407494327   -1.16174537410235   -0.72072113666631
H         1.36947216863041   -1.03003609732679    0.39924528958934
H         1.11684459671298    0.68470784979604    0.54303802393840
H         2.10306747736377   -0.18519807456238    1.79625600131183
H         2.31449600610783    2.07708710426160   -0.47532987917788
H         3.87139554621116    1.83601387417935   -1.30446210305286
H         2.43040182973017    2.20464762060393    2.06396368229879
H         3.50213475674244    4.48736253551779    1.73704148801366
H         3.62917541075523    4.77685637855956    4.19357748150372
H         5.31123695613961    4.45647975501686    3.93474746530999
H         4.76611280131412    2.08165174138850    4.31016447332193
H         3.22344665431690    2.46766494652421    4.59374940855165
H         6.11152379496394    4.30315183524649    1.87532347832408
H         7.36139218052369    1.70678584943425    0.54870263459352
H         6.52789989293994    2.35603543219622   -0.84587984511864
H         6.46067581996305   -0.36901572047823    0.19957277621459
H         5.42004933096954    0.06750391808835   -1.20432770730334
H         4.04609568475222   -1.27493707348984    2.31140186962185
H         5.66956982251182   -1.39675621330540    1.72785275382315
H         3.51589314176495   -2.78593140074734    0.56905623595307
H         4.96350776899620   -2.48653109495020   -0.29710199949304
