36
 energy: -47.843336920523 gnorm: 0.131037533634 xtb: 6.4.1 (79825abcba525fcdf90b791dcacef51065a7a4e7)
C         1.73920299091833   -0.02844054165440    0.44558089183913
C         3.16717776597669    0.14070554349253   -0.12294900749161
C         3.33048009461847    1.62109738364100   -0.41366539636650
C         4.10786436703560    1.73282010771639    0.96915115326554
N         3.42532797359589    2.26230622175909    2.14316184846411
C         3.97127534625202    3.64306399837079    2.29470898181722
C         4.18382683759913    4.03872153470875    3.79385889728888
N         4.76797071651317    2.90192711901193    4.52267990923641
C         5.28839207300918    3.56731125450394    1.55721986589968
C         5.39320183820057    2.39106392699545    0.95480100700561
C         6.44363911538334    1.69257012795526    0.21138265517490
C         5.90448616957258    0.24131844306945    0.21782602603449
C         4.46956123263800    0.25409121136942    0.93617773460528
C         4.24497336770048   -1.14252363336291    1.51702524111401
C         4.05363163881661   -1.90891939604730    0.19826905738210
O         3.55892713315005   -1.03589475100262   -0.84687637199560
H         1.12773385068206    0.05917865115583   -0.45902370626186
H         1.45199942135818    0.80213751831749    1.09204956731947
H         1.58555999576239   -0.95467827526617    1.01858810570718
H         2.39223251967085    2.17513117621319   -0.52566808199269
H         4.08023349707111    1.90526689616790   -1.16589237201190
H         2.41305064805129    2.15785019410876    2.03536170543054
H         3.22885488264958    4.26110244117510    1.78311638096107
H         3.17831417519537    4.27652733512061    4.15928410193924
H         4.78152098058716    4.94507402074080    3.96295526988223
H         5.76836201697929    2.80078268865493    4.34446531108526
H         4.26229853792338    2.09750368173727    4.14492805216229
H         6.05183516109388    4.31970327919701    1.66949840728407
H         7.47207851440032    1.84104775603415    0.56151397747398
H         6.39347906547596    2.00109645616149   -0.83796698355126
H         6.55436086657451   -0.48924732646518    0.72130471368308
H         5.86298976052641   -0.21635565202293   -0.77564588652760
H         3.28116785412893   -1.22193545381799    2.02732419484331
H         5.11685241427053   -1.49458625568538    2.08544322888238
H         3.27377004740943   -2.67576706630506    0.29493572316667
H         4.97016289773181   -2.42901704673870   -0.08791252894501
