36
 energy: -47.841941213604 gnorm: 0.150600563460 xtb: 6.4.1 (79825abcba525fcdf90b791dcacef51065a7a4e7)
C         1.83891661306037    0.06995506137634    0.59645720216667
C         3.17444406135528    0.16352504215831   -0.17720922695356
C         3.42948335314292    1.61302356122888   -0.54687491380319
C         4.13694836371673    1.76148524262544    0.86961460392063
N         3.43712999569817    2.40345211627307    1.97534771006045
C         4.02841923141465    3.73068231479625    2.31645515077710
C         3.97903837181227    3.85656014681044    3.87558629129815
N         4.72291176069922    2.75569169690933    4.50760429551530
C         5.41035066116625    3.52319257984430    1.74057421292583
C         5.40112725804733    2.45421377289468    0.95657748012342
C         6.45435523662565    1.70412763739625    0.26950773722452
C         5.90371162201021    0.27364207411035    0.05188034676884
C         4.50726056614918    0.28477184280962    0.84245145290564
C         4.39044256211020   -1.12741332464356    1.41729359980257
C         3.86065679972518   -1.92972598534453    0.21782974928114
O         3.43416926649345   -1.06893564326341   -0.86678168002369
H         1.42045297229323   -0.94229465965747    0.58551172155104
H         1.14384249049402    0.77580767130590    0.13938869605491
H         1.87052377324166    0.24440831929151    1.68201090251664
H         2.46066321473713    2.12361917997808   -0.56892677099901
H         4.12323809873626    1.81678939515660   -1.37507283810330
H         2.42609647833103    2.41849241005069    1.81779640514766
H         3.57094112354043    4.52821132624662    1.72522931848890
H         2.89950624875027    3.78734119118831    4.05154665102406
H         4.33030181237092    4.80761900711513    4.29915184038252
H         5.59006727377968    2.62281635955686    3.98495827768383
H         4.20740392880331    1.88440348331562    4.65115364178792
H         6.16646522387235    4.25866967747446    1.96173011591883
H         7.27364789728411    1.67944743302541    0.99784534024533
H         6.86241438781106    2.11786901750195   -0.65847129684471
H         6.52434205494757   -0.52022869950047    0.49249512243740
H         5.70515155990457    0.00887915759738   -0.99150286897391
H         3.68487625493210   -1.14942977600486    2.25235280125953
H         5.33136946239450   -1.40046159082045    1.91460785533285
H         3.00520521563113   -2.58247473584555    0.43624581401336
H         4.61290634576062   -2.57453140132804   -0.24127550854927
