36
 energy: -47.847322444527 gnorm: 0.146757729429 xtb: 6.4.1 (79825abcba525fcdf90b791dcacef51065a7a4e7)
C         1.77267981631548   -0.15954724298097    0.34610189350020
C         3.17417398410593    0.12185587888361   -0.24345306450459
C         3.41089555547733    1.61420411609271   -0.38346513085098
C         4.20224615652343    1.73414631372426    0.99071398453237
N         3.50688659010754    2.31232824675551    2.13382099109745
C         4.03239243887722    3.68826522442099    2.37498127460282
C         4.08222854266123    4.01472039981852    3.90472537182179
N         4.81549428135273    3.02675983364871    4.71154691437701
C         5.34805817351052    3.55691047486387    1.64272794143965
C         5.46084139268034    2.44029623322578    0.93710465035303
C         6.42336947644351    1.68932018836468    0.12867537406991
C         5.80343428930034    0.27093133413875    0.10198385145301
C         4.40875543346469    0.22859911341874    0.89462561235674
C         4.25153003895971   -1.17106147976639    1.49009793062366
C         3.94128001783208   -1.90913658263334    0.17781665755657
O         3.59411948408743   -1.05956713022401   -0.94331887848669
H         1.44179789960465   -1.15697485329267    0.65519159897289
H         1.06157827351060    0.14490602654361   -0.42325521965193
H         1.54740702145581    0.54461169533426    1.16051711241664
H         2.48456812932073    2.18495029927575   -0.50984918797985
H         4.03149791324723    2.02357593365318   -1.19340055391755
H         2.49046470921038    2.29293799475796    2.01656923823063
H         3.40508597796837    4.48594258576338    1.96867577095357
H         3.04560015713785    4.07751489861039    4.25487014606717
H         4.53056400491725    5.01785907026704    3.90087147120188
H         5.73402556446734    2.90407756810536    4.28256819320511
H         4.35833753869539    2.11355772404780    4.66087631170911
H         6.17334105408922    4.21827212115690    1.85022412839212
H         7.45640809488572    1.62524258283986    0.49068439354384
H         6.38576254175917    2.13062596346986   -0.87266083741383
H         6.42649047316244   -0.43805896403152    0.66650848596396
H         5.60216037074930   -0.14765355555568   -0.88920207023273
H         3.38859196404844   -1.27093513725927    2.15417288268354
H         5.16949083899770   -1.58791943782286    1.92690185841754
H         3.09887225719347   -2.58661627358306    0.37005179768186
H         4.77948873009613   -2.56224073374517   -0.07376267311030
