36
 energy: -47.844037911985 gnorm: 0.150728876384 xtb: 6.4.1 (79825abcba525fcdf90b791dcacef51065a7a4e7)
C         1.79498879400323   -0.08401929903912    0.74247827228162
C         3.13861493965929    0.05079422343986   -0.01080968432790
C         3.41672026192528    1.47844718915195   -0.44348526710623
C         4.18802142024599    1.74845686567542    0.92076523758140
N         3.39674843791386    2.49323452609742    1.89221065481293
C         4.05492192939064    3.80472099968276    2.16484249798715
C         4.02697394304463    4.07734269064844    3.70564421241078
N         4.40638802696305    2.92259981458382    4.53469159338812
C         5.45955465405883    3.56471246129708    1.66102892141924
C         5.45226215927050    2.44590097931638    0.94993166838860
C         6.48719621608269    1.64577314516789    0.29213980341711
C         5.80042087663395    0.30449616137859   -0.06307095987978
C         4.52794762250562    0.26422174541722    0.91385885534852
C         4.48068412897862   -1.15534200148387    1.48039376818310
C         3.98151945491673   -2.04152887722475    0.32774484724629
O         3.49414821928490   -1.15319336159498   -0.70790126558152
H         1.80553727557965   -1.12371801810100    1.08714684160597
H         1.05436100910725   -0.03885547713572   -0.05733312732968
H         1.45388163291839    0.73653363259058    1.39070553149657
H         2.46067707312705    2.00158181457346   -0.55356803220979
H         4.00779412216964    1.61044267323568   -1.36105643359453
H         2.42397587438795    2.66540004692996    1.62517139588726
H         3.60515239096490    4.70607998461451    1.74040632444569
H         2.99919389510136    4.36525788979216    3.95447332525621
H         4.63833625996548    4.97086075709760    3.89317637543437
H         5.37359866291340    2.65901962619925    4.34026302436022
H         3.78812035500369    2.17782215743345    4.20522351345269
H         6.36877333284485    4.08172616700919    1.92095955658583
H         7.38277644740292    1.43591825053079    0.88898334714991
H         6.77044456457398    2.18213706162326   -0.61941018945173
H         6.45587662452521   -0.55855195838745    0.12422564813901
H         5.46086189259291    0.28966240586522   -1.10357741498965
H         3.78489847799380   -1.14101962864482    2.32378549315581
H         5.45888538129590   -1.45970303435477    1.87751708214233
H         3.23649249967836   -2.81581313695634    0.55358249508009
H         4.80483178785668   -2.57873049085826   -0.14765211130756
