36
 energy: -47.845317354206 gnorm: 0.135976580624 xtb: 6.4.1 (79825abcba525fcdf90b791dcacef51065a7a4e7)
C         1.81680605755774   -0.05310732925889    0.48189514630491
C         3.17544477000446    0.09775515660260   -0.24080120750082
C         3.43268095635620    1.56390385395199   -0.53572708744520
C         4.09797536185900    1.73267269676999    0.89880788755319
N         3.39960782293710    2.38576584170642    1.99892835309619
C         3.97775597177496    3.74205545278887    2.23074821234487
C         3.94724855975187    3.90538232816253    3.78688677795702
N         4.81093888079134    2.92333942760459    4.46093164929110
C         5.34252772391486    3.58692548981120    1.60006756326700
C         5.36221942210799    2.42837340534705    0.95600161936514
C         6.52358928081921    1.69272823240188    0.45198827455639
C         5.86503695828828    0.34228717855792    0.07852232403860
C         4.45531971426399    0.25368198472417    0.84013148806241
C         4.24970360884171   -1.09161479384250    1.53745170364945
C         3.89087378177168   -1.97495833986234    0.33161696620931
O         3.54789722130946   -1.16305686841593   -0.81834679885838
H         1.79332979651727    0.38997639197070    1.48339741983932
H         1.58901240112794   -1.11003791955184    0.62775584107469
H         0.97349340886793    0.43770329191582   -0.02583362109981
H         2.56979976811033    2.22506387746163   -0.67030090586509
H         4.08214517028367    1.74769807644639   -1.40356571669759
H         2.39519965415121    2.54507170946482    1.88480880701512
H         3.40877405529088    4.52933678695089    1.72941558401684
H         2.92168926991852    3.65100937906819    4.07786008087343
H         4.29388596678772    4.93037000329381    3.97806602290061
H         5.79570486367897    3.15298429179926    4.31854978828919
H         4.65964235356131    1.94602251306922    4.20120313842645
H         6.21324110942635    4.17321174588533    1.84434680798947
H         7.31572643234377    1.55269832308047    1.19712961058113
H         7.15097389501639    2.04524652754257   -0.37321393498821
H         6.46331001060804   -0.55901997034551    0.27668665806176
H         5.59215053563917    0.33596398505468   -0.98150930254894
H         3.46361302782869   -1.02802945312424    2.29484916545288
H         5.12399956936816   -1.50816064392999    2.05640872533365
H         3.16467088808331   -2.73178947067293    0.65630129711263
H         4.74223885697628   -2.51274039156276   -0.09075610670302
