36
 energy: -47.850120722703 gnorm: 0.142223376944 xtb: 6.4.1 (79825abcba525fcdf90b791dcacef51065a7a4e7)
C         1.66632813730140    0.06415754750640    0.37359531634998
C         3.09313002460441    0.24414882232015   -0.19454918317310
C         3.37208785513450    1.69523906114763   -0.53989448059547
C         4.11794986703752    1.94090977450358    0.84297424966517
N         3.35935144875837    2.55870984140945    1.92342064885880
C         4.21961932344809    3.58729659579657    2.57875699339665
C         4.23871437792943    3.47669106415791    4.13971036033477
N         4.63737524986313    2.12783086556025    4.57139473048967
C         5.56688374752621    3.37634956520949    1.92698613475287
C         5.41848835223343    2.56717365545768    0.88743585113518
C         6.31350664168139    1.82766904440589   -0.00478519924548
C         5.73227240034743    0.39470720799473    0.07035559556479
C         4.35799705990513    0.43827129167409    0.89780441307741
C         4.20720382102464   -0.95995652138820    1.49828526535798
C         4.08920760126786   -1.76563932479884    0.19442784061739
O         3.57930521924378   -0.92579337062243   -0.87041576835237
H         1.38261589438885    0.81612798168085    1.11785934994765
H         1.54985271459638   -0.92528249809885    0.81824060851218
H         1.02096352882950    0.03542565021902   -0.51665115996096
H         2.42172668997627    2.23173277514971   -0.63367499910500
H         4.11081749911886    1.81689992316187   -1.34500634066411
H         2.42474140375516    2.93873935883662    1.75219263160202
H         3.81747528058000    4.57583455229772    2.34219916797133
H         3.23373405425939    3.70503070310965    4.51256218124799
H         4.97772963828159    4.17380890378721    4.55826728243174
H         5.45552149463288    1.96436277087689    3.98259229983133
H         3.94728389695699    1.49483804511748    4.16079528679396
H         6.44828911532650    3.93854251322718    2.18892008454141
H         7.38700751180789    1.86194207208638    0.21600088005565
H         6.19275160916379    2.25962166988737   -1.00362173549103
H         6.46401027993902   -0.13314561680065    0.69923188185884
H         5.75003309743273   -0.10702714354989   -0.90233203875232
H         3.35110702370654   -1.08542358264550    2.16685740215333
H         5.10411790205473   -1.28723434869402    2.04202657022366
H         3.44158044803950   -2.65007881380441    0.25711577612575
H         5.08503418985924   -2.16570662178519   -0.00733092674932
