36
 energy: -47.844954199792 gnorm: 0.132122261759 xtb: 6.4.1 (79825abcba525fcdf90b791dcacef51065a7a4e7)
C         1.74066316621258   -0.04433108641107    0.46340229627702
C         3.18003635703874    0.06947174834617   -0.08995319233714
C         3.47672021050016    1.47191592746506   -0.58782129246134
C         4.10145492402552    1.86418629799698    0.82101524346665
N         3.26503993529778    2.46863143473176    1.85036873807519
C         3.94701235704054    3.71985851606335    2.29405952692021
C         4.29207164084228    3.73202526981353    3.82048003452162
N         4.57420156287259    2.43334931123380    4.45178752451851
C         5.29088779279790    3.59125666116639    1.61443791220705
C         5.35209238429341    2.58334769340507    0.75547058122340
C         6.39132851820898    1.83457585950514    0.04602577875913
C         5.84903322584951    0.38552399762377    0.10101111722085
C         4.47653760480443    0.39264604893172    0.93251994718807
C         4.35567641762046   -0.89230294255185    1.75267554236715
C         4.07697011242382   -1.86042120296595    0.59157183778319
O         3.53325204162369   -1.22815662202629   -0.59326810737069
H         1.50844904156291    0.82737969602476    1.08475405786141
H         1.68814895168389   -0.95713050173510    1.05863924754058
H         1.08402831865434   -0.06383591216977   -0.41881650275395
H         2.61315728614667    2.03515694755004   -0.95772015773577
H         4.22100448814067    1.36582750381710   -1.39001456294863
H         2.44957723197487    2.76715762780408    1.30894466606460
H         3.44932558583038    4.65161959524642    2.01296199367163
H         3.39983516281574    4.14560428770551    4.30422517408633
H         5.16635916151826    4.36366747107654    4.03013729735537
H         5.23365144259604    1.96658284865518    3.82726505127015
H         3.75537311903876    1.83641907394783    4.58850678018081
H         6.14196358035467    4.17317615297228    1.92842087850161
H         7.30286208702774    2.02431967532382    0.62518810834800
H         6.61680948049545    2.15857661096099   -0.97525823425760
H         6.58920656873852   -0.26461131022350    0.58990963242044
H         5.60835724348694    0.00002547282713   -0.89480007382859
H         3.47650446267941   -0.90558437203656    2.40268523331150
H         5.31588883418943   -1.05521285565400    2.26127424939769
H         3.35291670354706   -2.62821364726885    0.89459875388111
H         4.91698802949268   -2.40900884610889    0.16046569501019
