36
 energy: -47.845611524797 gnorm: 0.133195026652 xtb: 6.4.1 (79825abcba525fcdf90b791dcacef51065a7a4e7)
C         1.85928009862604    0.19734119281692    0.61575549727766
C         3.18288683486204    0.17221802438770   -0.18323304479116
C         3.47985458162241    1.60889569906129   -0.57119070179333
C         4.13326628902526    1.76380956871418    0.87035186923737
N         3.32552026985488    2.42705872996904    1.88630454004206
C         3.97281068645793    3.69815870611709    2.32543688776456
C         4.04483935573484    3.67318560935330    3.88856254741451
N         4.71813967828625    2.44531093927283    4.33988969001863
C         5.31236104157540    3.59790054144992    1.63263209766557
C         5.35618564976572    2.53157789469088    0.84619261310021
C         6.36481803052546    1.81107871844663    0.06675378976942
C         5.97092844150842    0.32844641910675    0.27534783468884
C         4.48419532405695    0.28213888387294    0.87757898570318
C         4.27855413233793   -1.06043526547196    1.58011954149246
C         3.97303135970056   -1.94049372915217    0.35731742880308
O         3.40278524336479   -1.14499984704851   -0.71097205902341
H         1.40926779102458   -0.78332719387661    0.42691810993261
H         1.10954610505700    0.86386659343836    0.18690774650546
H         1.90802135585524    0.37793308302658    1.69967000001165
H         2.62346924741380    2.23336539326336   -0.84768373389246
H         4.19556489923649    1.75776671218358   -1.39236310906520
H         2.33697086169390    2.54914427649202    1.65156513413337
H         3.47751804949839    4.63762952656977    2.06665799783202
H         3.12510189299728    3.82503850390472    4.46490152913630
H         4.70161855271264    4.52045475514428    4.12956630549135
H         5.56482737001077    2.40176833829141    3.77068200155838
H         4.22339281169181    1.62512220013053    3.98209944466257
H         6.10372646563181    4.22655874776084    2.00689851735507
H         7.36551717055612    1.92330361094983    0.50072620184381
H         6.37033965998605    2.06083749980088   -0.99928061214811
H         6.67430358944803   -0.13453289494034    0.98278537835029
H         6.11632506305976   -0.25184650199291   -0.64132767358731
H         3.36261724572983   -0.90468150501453    2.15668938562233
H         5.18249651369663   -1.40004791279316    2.10430622224217
H         3.32023895317354   -2.74004151063598    0.73170938145765
H         4.87831777701051   -2.43303730090034   -0.00363737431792
