36
 energy: -47.832838233506 gnorm: 0.137162361197 xtb: 6.4.1 (79825abcba525fcdf90b791dcacef51065a7a4e7)
C         1.95547371684234   -0.56462438510503    0.56154959904020
C         3.27452613824700   -0.13018677757262   -0.11838666820868
C         3.17560086746973    1.35505519696697   -0.41336766857601
C         4.07230432225715    1.64081758243302    0.86852660141104
N         3.28264372909011    2.06112807381784    2.01930378073272
C         3.72446176897767    3.40202223831840    2.50336668602629
C         4.05669398723574    3.23979589050066    4.02405007630770
N         4.46944311042882    4.30950090279692    4.94604523575478
C         4.93890062242684    3.64680066561781    1.63754504526752
C         5.13888616461694    2.61374643479417    0.83116029629391
C         6.23507340710049    2.07955436531516    0.02060766992901
C         5.74189457478497    0.65363989540257   -0.32638161758704
C         4.65227271270975    0.23601125991325    0.77521385832356
C         4.97456823967141   -1.14780652750792    1.34048440769867
C         4.51639962415370   -2.02936420974831    0.16744150688019
O         3.80102658862030   -1.26041058864224   -0.83064933375212
H         1.19843956890153    0.22134888268639    0.46654201179243
H         2.01252853006475   -0.80820833746694    1.62347199283106
H         1.64227657542494   -1.48582161229452    0.04855544034886
H         2.17689122228090    1.70276189578424   -0.12791063697628
H         3.53623838505416    1.77908235874445   -1.36145495812671
H         2.26459647436086    2.06179431512371    1.91530024893280
H         2.94812495170744    4.17155710979453    2.50137779715193
H         4.87888582838035    2.52416391530067    4.13813062411215
H         3.09452959636166    2.83770311886075    4.37026939566206
H         3.74140123299796    4.86756993249664    5.39469586168467
H         5.08368599185166    5.01560591099497    4.53419660850813
H         5.67738875179916    4.41813963143278    1.78320629508141
H         7.23323487265039    2.12642209087603    0.47205240743234
H         6.33094052439167    2.63883400299518   -0.91579771970042
H         6.58730495260162   -0.04875850164944   -0.28801370390900
H         5.38890967015072    0.58847262523357   -1.36046522799818
H         4.45095576524499   -1.43141248262235    2.25756131290119
H         6.05308639481042   -1.29135178210862    1.49349944247436
H         3.73944836981907   -2.75835931763379    0.43295383670133
H         5.30615090515522   -2.54950216109664   -0.37861752340724
