36
 energy: -47.841380487611 gnorm: 0.138286792360 xtb: 6.4.1 (79825abcba525fcdf90b791dcacef51065a7a4e7)
C         1.71145931307682   -0.05392423139957    0.40747319842435
C         3.12748345442638    0.16323824935793   -0.17447584698385
C         3.40986470484647    1.61997198046111   -0.49217282669543
C         4.11494656653478    1.78444175549464    0.92373656592843
N         3.31616846452602    2.48390118661830    1.92234701031993
C         4.02952109220412    3.72578356469067    2.34231537166672
C         4.32824356965078    3.87687808777767    3.87107595064804
N         4.65696058070745    2.63682930286906    4.59144381029667
C         5.36358175792943    3.61653580846281    1.64033791389883
C         5.38805881669990    2.46323185764391    0.98708263492472
C         6.41194964376581    1.71793768114103    0.25212187298784
C         5.84418102451200    0.27794585188929    0.22176883452170
C         4.39928530019355    0.28855135187975    0.91988479841122
C         4.29150154595576   -1.11422226047316    1.51902215017555
C         4.08317657840371   -1.89468018212316    0.21113140641752
O         3.53770407025234   -1.04693556831103   -0.82955220427972
H         1.55467914075271   -0.86458957729589    1.12728066525985
H         1.01133648318748   -0.33370110100335   -0.38108274953624
H         1.36807079406004    0.84675507888905    0.93730419634565
H         2.50703707072535    2.19548099783638   -0.72346967731007
H         4.10383280878499    1.64741535322057   -1.34445391958176
H         2.30070997175816    2.42772109003077    2.03603630513554
H         3.46306281993484    4.58358055736533    1.97056807239909
H         3.43509403004010    4.33064861340052    4.31550718734268
H         5.15002194147718    4.60496794169434    3.82780706099895
H         5.42680001301760    2.09023589357137    4.20239845120612
H         3.78582786734148    2.10183471414460    4.57128262216014
H         6.08353710254835    4.41782771898985    1.67412059479696
H         7.44361049511158    1.78703340331417    0.61712447749329
H         6.34255278519501    2.09904550344519   -0.77197780802471
H         6.48699652026024   -0.39074918152362    0.81269141248925
H         5.83394020790858   -0.12898558076889   -0.79433940476241
H         3.42499699949966   -1.27920367668894    2.16522909147512
H         5.27292389296707   -1.40612219869459    1.91755050128097
H         3.43611921680150   -2.78086491988705    0.25084650203456
H         5.05438550123100   -2.27806388444196   -0.10855780724473
