36
 energy: -47.837063770984 gnorm: 0.149680438130 xtb: 6.4.1 (79825abcba525fcdf90b791dcacef51065a7a4e7)
C         1.80693846214589    0.02836850357058    0.45839522881608
C         3.23147288769989    0.08130279766259   -0.14064424645399
C         3.45922424887948    1.49524894597726   -0.64227093434870
C         4.10545679698392    1.87582026657148    0.76006252232231
N         3.29092922730785    2.52156867430183    1.78185836233376
C         3.97561820030935    3.72896933774709    2.33040361564195
C         4.05435775471874    3.58246383683743    3.88652373316547
N         4.69020619360200    2.32336367680250    4.30493652823153
C         5.38007408975821    3.54255852743184    1.80392476076301
C         5.35702432881997    2.58500818942390    0.88739997109199
C         6.36138211966765    1.88096032614531    0.08767173948358
C         5.94895699074131    0.38893437229804    0.06271012878609
C         4.54973088622341    0.42203743434947    0.84774044699647
C         4.42862781557328   -0.84942490202038    1.68861763258443
C         3.86636595068297   -1.84893373671761    0.66493029531336
O         3.56108738628300   -1.23466882676752   -0.61128175552868
H         1.28762738281727   -0.72881430643653   -0.13899184538351
H         1.33179263302972    1.00477026723275    0.35283196943529
H         1.77206927878195   -0.31090253362376    1.50411942507824
H         2.50843903932224    1.97230451818013   -0.90348369078807
H         4.15196332923894    1.54704873141105   -1.49441957998321
H         2.34569697404006    2.85129552600464    1.56960004733532
H         3.58350650434780    4.74390600221245    2.22533831537757
H         3.05414946085362    3.72467770411340    4.31137841725138
H         4.68775129941233    4.39594321090350    4.26648511881950
H         5.55218895184756    2.15860108558201    3.78281354284047
H         4.08722767699911    1.51409411900027    4.14062712231261
H         6.26715737656823    4.05503738464357    2.13858038054674
H         7.40444871542385    2.13445115542154    0.31145674875827
H         6.21969729908630    2.13250614926458   -0.96849556755102
H         6.68015546176849   -0.24102725345937    0.59001598868281
H         5.88623749610155   -0.00450114841020   -0.95682348744349
H         3.70850502745982   -0.73346700283298    2.50323984043860
H         5.34047025193711   -1.17017466246930    2.21099988935058
H         2.93861390953549   -2.32846642779178    1.00391180917541
H         4.49028159850090   -2.65641346327820    0.27616713382408
