36
 energy: -47.846584639331 gnorm: 0.128562585369 xtb: 6.4.1 (79825abcba525fcdf90b791dcacef51065a7a4e7)
C         1.79657609349812    0.05390257889163    0.60377445368308
C         3.16008667242022    0.13920859641999   -0.12045647161996
C         3.46068355224391    1.54255644149396   -0.61340683563211
C         4.08420763630600    1.90564602240872    0.80376422313219
N         3.22009351810041    2.60897777246723    1.74352170800756
C         4.07902886775729    3.66343844146903    2.35822489193841
C         4.13461366873232    3.41804715004297    3.90285010785611
N         4.50503049601705    2.05100612940335    4.30121670335521
C         5.41618662479784    3.57508144633105    1.65920593818400
C         5.34800544919126    2.60314459064816    0.76023892184543
C         6.34017544915403    1.86011725363279   -0.01917898059978
C         5.90654015220991    0.40804896846309    0.29754981550837
C         4.43526212341523    0.43007232602913    0.93790754542022
C         4.26407774409579   -0.90434423965589    1.66480863434117
C         4.10449163998622   -1.81221911654219    0.43461045766097
O         3.49750984401849   -1.13386126618046   -0.69261503138036
H         1.44661183603130   -0.97283065042652    0.75617200577237
H         1.01564019131598    0.70202411296250    0.20334324054283
H         2.01350918651773    0.56061164066366    1.55563880638175
H         2.63116140673262    2.21622632575132   -0.85396559936665
H         4.22106439827490    1.58031282153172   -1.40657981608014
H         2.41583244818444    3.06571968650282    1.30558523893801
H         3.71872513670655    4.68831406676331    2.23699001256218
H         3.18915405008544    3.68512317567301    4.38856548658799
H         4.88460690413671    4.12960194511917    4.27501492598974
H         5.46372250620654    1.84245135520428    4.01804195942258
H         3.79952687121058    1.41481996702163    3.92302403818013
H         6.26922397061592    4.19846009478325    1.87197827716411
H         7.35856170770514    2.17944988027436    0.23229934667788
H         6.30202223203309    2.06121211804182   -1.09479250873641
H         6.47277804121678   -0.00316087426423    1.14598097384099
H         5.95584125326169   -0.09656696474150   -0.67255646323825
H         3.42256885644643   -0.90221768635612    2.36301396149494
H         5.16644560645858   -1.11626657843118    2.25475898138377
H         3.55409492911556   -2.75100812712920    0.58063295721919
H         5.13352974047781   -2.08507050445188    0.19158012481481
