36
 energy: -47.840834940145 gnorm: 0.133431693673 xtb: 6.4.1 (79825abcba525fcdf90b791dcacef51065a7a4e7)
C         1.70628194095410   -0.04034562841815    0.21408223431437
C         3.17668630005509    0.17219582614395   -0.21450342980719
C         3.38243052602974    1.63502508602006   -0.56169714745325
C         4.01271865959193    1.87490830720901    0.87850522831808
N         3.22849300362470    2.46157745034383    1.95800606467257
C         3.98977167526745    3.67896563960714    2.36536087827637
C         4.31687709279979    3.64733790496259    3.89545083691210
N         4.99695425137324    2.40013627661698    4.27845065475156
C         5.30848339556337    3.59142448731345    1.63203886509979
C         5.27407750150724    2.57195364611403    0.78531169149386
C         6.31909176000233    1.74276156157180    0.18168207120591
C         5.82453717674789    0.28025157126483    0.29717754243369
C         4.36539589156928    0.39561443711561    0.95505292666569
C         4.22642563234671   -0.93266104004552    1.69985362416197
C         4.06050705403418   -1.84656208819510    0.47496673416276
O         3.64727154592668   -1.09688655197899   -0.69398858431542
H         1.60263202233478   -0.93339451011588    0.83986293215722
H         1.21878314391761   -0.23349286896646   -0.74263434117907
H         1.24929891825304    0.82296071296699    0.71977822624750
H         2.51065860687928    2.24619174936335   -0.81917640126689
H         4.10603676299580    1.91763989407768   -1.33967577996126
H         2.27550747123818    2.76682022993654    1.74380344407609
H         3.54037886638766    4.64488011631994    2.12053030058666
H         3.44745978452778    3.70415078919355    4.56030326328393
H         5.00216425299228    4.47040805151192    4.14089688454736
H         5.49545573716029    2.10560363166781    3.43730846322885
H         4.26228081873520    1.70636541832023    4.43476709871968
H         6.07182774443860    4.34054219863869    1.76498135778183
H         7.11971519931508    1.86366365128633    0.92108046757264
H         6.74211064051935    2.06651224141328   -0.77491593332099
H         6.49865126674418   -0.30406784725761    0.94036902079789
H         5.82655155593155   -0.29500644947841   -0.63408403822792
H         3.27204587684438   -0.85081387119634    2.22719854312238
H         5.12641681167494   -1.23919232561762    2.25055738481201
H         3.38397044672871   -2.64871704853539    0.79812230803167
H         5.03315511082677   -2.27234136443402    0.21982211481453
