36
 energy: -47.847228602280 gnorm: 0.131542141509 xtb: 6.4.1 (79825abcba525fcdf90b791dcacef51065a7a4e7)
C         1.71539580245737    0.11808904521702    0.37112610316927
C         3.17161648195622    0.06334696154294   -0.14595541457399
C         3.49788132780991    1.46247753345205   -0.63455404708016
C         4.07727957390216    1.84068898545738    0.79731324863429
N         3.21917415687168    2.51981048998002    1.76010190136287
C         3.94918064964139    3.71352231434559    2.27938973533303
C         4.19659016967656    3.58201809745296    3.81908736370630
N         4.89588261200197    2.38876268547605    4.32092132770532
C         5.29335258111820    3.66752842066313    1.58981616156312
C         5.33055913410459    2.55447762725468    0.87066022464923
C         6.43931699082467    1.82184250992215    0.25593667989340
C         5.85794105268462    0.38699409368575    0.24750663944318
C         4.41429752457117    0.36342927443014    0.94789236705258
C         4.20282214478231   -0.91998584365490    1.75193259232275
C         4.03646537441308   -1.90008253223030    0.57940200103678
O         3.48058654038511   -1.26416455493399   -0.59781532366893
H         1.54964791225219    0.98132882849891    1.02475125217542
H         1.47130406594577   -0.79305574788869    0.91930668910916
H         1.06416084292323    0.22565279637618   -0.50875051081307
H         2.57819911676786    1.98731943792206   -0.91479010308468
H         4.27797266905675    1.50699971097967   -1.40799004506963
H         2.32435888842228    2.76864936237180    1.33042499252821
H         3.38100275306369    4.64561400373223    2.22224347242666
H         3.32610526123311    3.72104761960144    4.47029373708134
H         4.93907765897766    4.34249173862591    4.09783258925465
H         5.84007078415014    2.21524502368503    3.97282117266722
H         4.32630624438364    1.61016079513322    3.98201168297491
H         5.98169073649318    4.49547891735601    1.63708449668831
H         7.43703864544667    1.88676833220685    0.70611597567625
H         6.61064937438936    2.26609190598231   -0.73002831605259
H         6.54341259273388   -0.31519977904431    0.74410190457198
H         5.73798638054714    0.03552719926378   -0.78218065890343
H         3.33983539948673   -0.97724963753026    2.42096708550900
H         5.07279704584544   -1.16940028283064    2.37495455422161
H         3.34663012229536   -2.74201681225908    0.72382468949887
H         5.03128995590665   -2.25812646683771    0.30634590463892
