36
 energy: -47.842991515749 gnorm: 0.149427504008 xtb: 6.4.1 (79825abcba525fcdf90b791dcacef51065a7a4e7)
C         1.77551327882246    0.09789004869016    0.35371191027393
C         3.25412606503356    0.06830921872450   -0.09770569942675
C         3.53472409456747    1.46531980624927   -0.61959638813665
C         4.07923729346657    1.90858504942104    0.80729234151792
N         3.09443342067461    2.54674336906856    1.67183163260647
C         3.85182420761614    3.69633627649538    2.24829722204277
C         4.14084171285875    3.40870160778439    3.75922699484170
N         5.13626595018463    2.35268620622502    4.00144131686085
C         5.21156463181383    3.69438095035862    1.58835216439196
C         5.34509767661112    2.60247398691103    0.84851450318227
C         6.34742838726081    1.76674164454425    0.18453570980066
C         5.84455974788781    0.30265192267338    0.20511343142486
C         4.46321273502507    0.44893904835672    1.00865720864901
C         4.20912553446635   -0.79429291879078    1.86198647151428
C         3.94047384820969   -1.89531545759283    0.82339717937736
O         3.69488272723965   -1.25178527642917   -0.45127434162627
H         1.54473721552054   -0.69751410868816    1.07061898700716
H         1.20568062809488    0.01540094214301   -0.57297782216883
H         1.40677324812477    1.02193662129374    0.82278387815733
H         2.63531975138181    2.04085754136434   -0.86379870037779
H         4.25645596637693    1.65160437263126   -1.42776043506629
H         2.36651465473204    3.01035200017462    1.12188736817242
H         3.33109119316108    4.65360357046595    2.16248824498674
H         3.24562638847815    3.01024017559629    4.25010470550340
H         4.41925731941436    4.32073708979086    4.30510496747430
H         6.10319835804329    2.66647016525961    3.90472138543549
H         4.90797524962647    1.50925157234220    3.47040528775997
H         5.89757509438323    4.46819931014139    1.89189874606866
H         7.31569416325817    1.84807354040666    0.69264176581950
H         6.48082523072001    2.10489539520572   -0.84827434418972
H         6.48765919405267   -0.41930819464484    0.72928040403505
H         5.70330399627766   -0.04086059634289   -0.82455641853748
H         3.30842085064128   -0.75465354863841    2.48068849796808
H         5.11145322274458   -1.03579059819641    2.44052243942625
H         3.00508362455065   -2.37139872948245    1.14584680953103
H         4.74020056972651   -2.63543496253032    0.75204363781641
