36
 energy: -47.845149963901 gnorm: 0.143928781432 xtb: 6.4.1 (79825abcba525fcdf90b791dcacef51065a7a4e7)
C         1.74677536395625    0.04364736946063    0.52269622293921
C         3.12899826542634    0.19221182317098   -0.15430974385038
C         3.45752338325348    1.64725718309128   -0.43298148311347
C         4.18772926517460    1.76073723515797    0.97517751574927
N         3.46334855419587    2.25964480414899    2.13744972489464
C         4.01852861058953    3.63312913949777    2.31864883322121
C         4.02539417204211    3.90986794710530    3.85895468618239
N         4.75410397151947    2.95204343093454    4.70527611106692
C         5.35770545388344    3.57811793586724    1.62007564971455
C         5.46579554171488    2.43299281578723    0.96094240045829
C         6.44970964513822    1.65522703834121    0.20531242426133
C         5.86087980437462    0.22878226817379    0.08124087414028
C         4.46294469932442    0.26695237386709    0.86833841882389
C         4.20583902713995   -1.13870982712970    1.41273466471729
C         4.01745552545057   -1.89138535634603    0.08567654436024
O         3.40310149524261   -1.01147408717828   -0.88774980031055
H         1.67314165653331   -1.03824626962755    0.36788877823021
H         0.98363775521730    0.53946321331223   -0.07901400168207
H         1.67431560116851    0.14387911426568    1.61565686232064
H         2.63289176145012    2.32531352480270   -0.67798946018453
H         4.25206037147244    1.77136695976154   -1.18267187198956
H         2.44701607469515    2.33827445737091    2.04732173463173
H         3.34215399518472    4.34590551724294    1.83973971176900
H         2.99644209826140    3.88027853609263    4.23515279987731
H         4.51050027971221    4.88619969331922    3.99590402808764
H         5.75585645505400    2.94223897789561    4.50736391886523
H         4.45045549870319    2.01911328384990    4.41728854750151
H         6.14959650152969    4.29869561015602    1.74345360623921
H         7.45533354656413    1.63747028938671    0.64203948346905
H         6.51990411811761    2.00200307432233   -0.83086246194824
H         6.54917621572671   -0.49571773597710    0.54048166834991
H         5.63051322808697   -0.07376990825091   -0.94519346273674
H         3.33704451941244   -1.20531659717272    2.07333441367777
H         5.03435711928180   -1.58091158791151    1.98302898251814
H         3.26493801120786   -2.64139940462154    0.36276899354316
H         4.86328998395087   -2.42592420544615   -0.35166007402297
