36
 energy: -47.823035420305 gnorm: 0.146917565937 xtb: 6.4.1 (79825abcba525fcdf90b791dcacef51065a7a4e7)
C         2.10083887399536   -0.47139959545937    1.22967743928145
C         3.12891013407306   -0.12030002612292    0.12933783712799
C         3.04293601043602    1.30562713811078   -0.38260347055534
C         4.08335340270466    1.78482610416086    0.72052397542876
N         3.44397671027825    2.08118160087046    1.99640945045706
C         3.95522169046733    3.42484509270945    2.39730124501250
C         4.45238657674831    3.39609190074743    3.88093662817998
N         3.55270742037302    3.88520031269437    4.93737219496350
C         5.11890477596059    3.59113093463597    1.44724017438485
C         5.22356931848773    2.64837996640666    0.52110972992486
C         6.32418063362862    2.01265872790462   -0.20586790622093
C         5.76942084883682    0.59622513521481   -0.49364642813428
C         4.65391113311538    0.37546011970924    0.63865342953851
C         5.01623604923200   -0.95284167094922    1.30400436165524
C         4.54173956031425   -1.91089654789498    0.19943385521676
O         3.53055848220801   -1.27642074143307   -0.62165496800729
H         1.16812128007362    0.09755300038460    1.15086147003374
H         2.45373852372278   -0.57740206236335    2.25656247711895
H         1.71672350748925   -1.48239087533627    1.02914862026313
H         2.15687135219462    1.93441698658309   -0.24360931017432
H         3.32809338540871    1.46440393206840   -1.43246211223450
H         2.44634066049013    2.19239476905567    1.79743375452630
H         3.34497586477931    4.31056175055660    2.20238391952565
H         5.34285349445863    4.03439672735924    3.85303434353564
H         4.70283105191822    2.33529588457651    4.01984706674661
H         3.14259083269180    3.10718280900438    5.45628119450888
H         2.88928002329704    4.55372648744444    4.53933358629656
H         5.86784873562173    4.33815008460661    1.65361620734237
H         7.21372812549340    1.90869535084875    0.42676321123585
H         6.67373932908328    2.58199877580880   -1.07333543808401
H         6.50886326174588   -0.21787375132791   -0.48893005590283
H         5.41898609408046    0.63762463299440   -1.52981996499897
H         4.41088586941003   -1.09230778116590    2.20385588514873
H         6.04228198956496   -1.12331729213007    1.65810611188682
H         4.03702781311033   -2.73976787957566    0.71307018739611
H         5.34002436373350   -2.25859328184539   -0.45956492364571
