36
 energy: -47.845345879630 gnorm: 0.128728199069 xtb: 6.4.1 (79825abcba525fcdf90b791dcacef51065a7a4e7)
C         1.73837359758404    0.08338041538189    0.61826490373496
C         3.10886016142580    0.15779690024815   -0.09389895861012
C         3.52986822687577    1.54761250761440   -0.53424933963625
C         4.15759729988256    1.71510366961385    0.91726464317062
N         3.27321099059732    2.36012796100436    1.87971833686797
C         3.96373041035733    3.62642573703030    2.26337180228297
C         3.91143821873863    3.72044988715155    3.82465284100538
N         4.94499384192277    2.98345866290883    4.56850254969986
C         5.35060246133953    3.53504048365528    1.66952013472200
C         5.41499586209559    2.42474111235305    0.94803544589955
C         6.42381061157910    1.75375451441073    0.12581119540920
C         5.91797754539228    0.29296457314905    0.20998090167934
C         4.46840822266828    0.22464973644765    0.89502380201866
C         4.34065345698482   -1.18173641425629    1.48163549420709
C         3.91304929187844   -1.95088755335620    0.22121762912953
O         3.43126908604844   -1.04778284061091   -0.80422045203672
H         1.36318680189820   -0.93283323304579    0.78082503946048
H         1.06354579464594    0.58235131777468   -0.07880254498659
H         1.78654114659152    0.69919197732584    1.52838345896601
H         2.76486295144600    2.28378293818044   -0.80374255767507
H         4.26990302112637    1.53723791726740   -1.34724919922480
H         2.40415861229741    2.66886316371085    1.43624583298304
H         3.50005135510126    4.54555474021810    1.89582552988794
H         2.99057892111501    3.27500041907823    4.21801758088921
H         3.89347444201495    4.75866352201723    4.18395279074229
H         5.88190719372603    3.38911038832200    4.58883578951451
H         4.88752624381792    2.03187295230545    4.19879997456915
H         6.20515452707298    4.13252019245210    1.94210838117650
H         7.43318299792746    1.81852379500109    0.54924654056105
H         6.51359482482317    2.10854829053604   -0.90612841501095
H         6.51585552080357   -0.35143306669170    0.87092558442355
H         5.82877548612129   -0.15603343972478   -0.78431168798365
H         3.57180822155678   -1.16631764962786    2.25898457638268
H         5.28738746500456   -1.57299340915082    1.87891732302341
H         3.05608877944629   -2.56638680950990    0.52513084241491
H         4.62787177741940   -2.62335430267956   -0.25758117883665
