36
 energy: -47.839218811212 gnorm: 0.128470418187 xtb: 6.4.1 (79825abcba525fcdf90b791dcacef51065a7a4e7)
C         1.72109320574162   -0.19734968206879    0.35716110833906
C         3.14472638302567    0.10547757778928   -0.16486655677192
C         3.40458236817597    1.58514464174108   -0.37888517974388
C         4.19114708224409    1.68456101832869    0.99967293099150
N         3.51189356763055    2.28933146843924    2.13869894057182
C         4.06998966487945    3.65157113211654    2.38435945210158
C         4.05220483752402    4.14461757511047    3.86954042417489
N         4.68666763681120    3.24074766889280    4.84174506901099
C         5.42614371586237    3.44233752785718    1.75072485124158
C         5.45516270878586    2.38165642683255    0.95601413765464
C         6.35523113735934    1.68258933213584    0.03668546110751
C         5.88009679379338    0.21082086113336    0.10742393014018
C         4.46831647643243    0.19293318423992    0.87015485050061
C         4.20790673899843   -1.20735578824950    1.42669273967012
C         3.91161085792087   -1.96424782285909    0.12192637456998
O         3.55846324986533   -1.03537916138486   -0.93245655035154
H         1.57526659002832   -1.28277587756315    0.33558118293414
H         0.89479951411280    0.24121803412145   -0.20423416972523
H         1.62363968026267    0.05161029209855    1.42411074663957
H         2.50657125240984    2.18959900031129   -0.54626975675210
H         4.23190112063820    1.71768790214066   -1.09071655819581
H         2.49151418846264    2.35781097760541    2.17576478320788
H         3.67799713742861    4.48621789626581    1.79733870327211
H         3.00188881892149    4.35266329001570    4.10341253021251
H         4.59962220992183    5.09673273551662    3.83610881505455
H         5.68987345278622    3.36474234583079    4.69691133837201
H         4.41335525221098    2.32534310976768    4.47728283200420
H         6.23945810784907    4.12422851417002    1.93804836280401
H         7.40432606521108    1.87256508965478    0.29287735916869
H         6.19395006951916    2.06774275256988   -0.97548276977497
H         6.67565635216038   -0.37439240703188    0.59132964181744
H         5.60665803146223   -0.15966626983048   -0.88562418429294
H         3.36341315966185   -1.08883035183412    2.11110103476033
H         5.02915020667424   -1.75264727629299    1.91191085050249
H         3.16221892881532   -2.76510024392691    0.17322016095628
H         4.87755291505456   -2.35527538068367   -0.20439313993913
