36
 energy: -47.827679218180 gnorm: 0.135566524337 xtb: 6.4.1 (79825abcba525fcdf90b791dcacef51065a7a4e7)
C         1.94373143806794   -0.41828236623839    0.93453612553897
C         3.15842796311425   -0.08028401274459    0.03942824421470
C         3.15135105131989    1.37629444850654   -0.38609827999968
C         4.12474277605520    1.67754484427348    0.83486318750863
N         3.62260009953867    2.00583859090302    2.16324145806060
C         3.95390742338629    3.44141725454887    2.40170862947337
C         4.57609492075593    3.55730447377334    3.83301099823259
N         3.50645902816469    3.68247129287189    4.83546700234990
C         5.01523475875671    3.71901036099192    1.36202036849263
C         5.12881865055217    2.67611004218351    0.55152097956012
C         6.24868528449417    2.01348020617928   -0.11989814309023
C         5.81010167308178    0.55473146504638   -0.39658486470513
C         4.66985563061571    0.26276042794871    0.69419190528361
C         4.89515182802215   -1.08298683123502    1.38452717312302
C         4.47365347812644   -1.93899962554676    0.17925820130038
O         3.58876057879949   -1.22258049745219   -0.71681197575266
H         1.14438720980341   -0.73769036337693    0.25710830240823
H         1.72665125639054    0.52323242379010    1.44118556723894
H         2.07229950307936   -1.14419727805194    1.75085566024308
H         2.11935906755127    1.74178684182173   -0.35124873417949
H         3.63686364247486    1.52997434302810   -1.36046370142833
H         2.61665433589183    1.88883059600049    2.31027764162469
H         3.05626402674303    4.06327442765126    2.45086875525040
H         5.26218113906713    4.39478428863686    4.00346973728335
H         5.01071907573434    2.55023927183162    3.89803598339235
H         3.12821253619490    4.62446909824361    4.94656661939327
H         3.86083427275549    3.35741950271879    5.73782912960042
H         5.55860193348843    4.64594406470980    1.27780784795668
H         7.08831372800777    1.90159289753788    0.57639960242648
H         6.65752158961317    2.46185388852938   -1.03129992293706
H         6.60766965724659   -0.18927490849749   -0.25553825321573
H         5.53003279990240    0.59823140466070   -1.45386591311420
H         4.14745136399465   -1.25233198163149    2.16420571808848
H         5.93273316384715   -1.27496048713859    1.69078088459220
H         3.90207973756487   -2.80490814802396    0.53854889307902
H         5.23690066687257   -2.35024684602882   -0.48463974753417
