36
 energy: -47.837259594258 gnorm: 0.156763678049 xtb: 6.4.1 (79825abcba525fcdf90b791dcacef51065a7a4e7)
C         2.07363031272182   -0.52426987922973    0.73272031369797
C         3.27073838029337   -0.13845589073958   -0.16673980252174
C         3.18226432491322    1.36156790565839   -0.37850544062724
C         4.04885693715691    1.63515425379796    0.92654549144613
N         3.31386050852358    1.96561252335979    2.14107853276552
C         3.78495515224997    3.30245376491749    2.60845695432209
C         4.04679996379791    3.31069421378214    4.15135779653209
N         4.10667936404275    4.64088831523418    4.77722026984133
C         5.06981332200236    3.49582208605284    1.83633422472852
C         5.16226072889900    2.55468883219961    0.90726300434449
C         6.22028527288743    2.01942423825593    0.04815933717388
C         5.75233059232253    0.63561566158900   -0.46462839567507
C         4.67386217329609    0.27123718715215    0.66644909600707
C         4.97945415549484   -1.14934773922739    1.14279865977561
C         4.40589144521912   -2.03484649752272    0.02476026357244
O         3.71581950773409   -1.24109707955935   -0.97173166592780
H         1.19225204788487   -0.04519800796915    0.29278438909210
H         2.20117193681442   -0.21708471626267    1.77177660420841
H         1.95486935738375   -1.61612658173733    0.67268227595671
H         2.11977657971733    1.61443040619325   -0.29491724776281
H         3.62353669781459    1.84963598817155   -1.25929838339705
H         2.29836382980958    1.87018264922499    2.22412700468011
H         3.06166943479293    4.09813354159672    2.41189094739261
H         4.91668171151388    2.66354718300364    4.31151205743856
H         3.26495731895237    2.77973671901771    4.71181560337691
H         3.81000845111215    5.38384750553945    4.14257752625799
H         5.03253106327670    4.92052537364775    5.10903292482817
H         5.84539942607168    4.11149699958087    2.26172384660568
H         7.13129525302552    1.88199294612256    0.64271690643657
H         6.50363227983995    2.69178713179595   -0.76822409000995
H         6.61071090535445   -0.04575194371484   -0.55669222264225
H         5.26793376855584    0.61343258868342   -1.44597525839594
H         4.46844023079761   -1.40498516892617    2.07507902997339
H         6.03717450398736   -1.41581673362997    1.27486761402742
H         3.73880613473457   -2.84444331443755    0.34900415975536
H         5.12475882402292   -2.44464209170533   -0.68779029885284
