36
 energy: -47.840233598285 gnorm: 0.153654650395 xtb: 6.4.1 (79825abcba525fcdf90b791dcacef51065a7a4e7)
C         1.86367615212322    0.10218053560084    0.71634464166160
C         3.18987330772780    0.05649697428577   -0.07742028944890
C         3.42531054954164    1.47867896479570   -0.55145764429426
C         4.16367208442819    1.77636274392752    0.82520380671964
N         3.31637817587289    2.39601616479231    1.83645825197388
C         3.92105298547010    3.71953438126529    2.16839972421648
C         4.15900326104741    3.87314687721399    3.70754119596498
N         4.46590809344878    2.64512690382524    4.45752925524421
C         5.26911009692124    3.63872772583098    1.48969682866359
C         5.37645279560037    2.55505816563166    0.73366148307628
C         6.44795098414531    1.70775993962622    0.20644184825049
C         5.88817265053737    0.26683849113374    0.12127964227553
C         4.50820139476862    0.29760503261242    0.93977511098889
C         4.39002453891536   -1.05476802367422    1.64367723838299
C         4.10615775188973   -1.95637874521733    0.43140258883022
O         3.45914113658359   -1.23454560602708   -0.64542608681160
H         1.36405576002952   -0.86437977594835    0.84292168697633
H         1.22674855766732    0.71378337139411    0.07561632802530
H         1.93154567291252    0.64499426427958    1.67060182502395
H         2.63730125232026    2.15643414179513   -0.89713943604369
H         4.14597400598077    1.65214949947369   -1.36341830178492
H         2.30771498522489    2.45319872205057    1.67346709498319
H         3.35371448022298    4.56563905501737    1.77201528287734
H         3.25263611319770    4.29288279946801    4.15861022217205
H         5.02083897912466    4.54084233478009    3.84439403927786
H         5.21188839460042    2.02684085801531    4.13502474936282
H         3.55166361261246    2.21096602519776    4.60299144947758
H         6.03250707412996    4.39948078712806    1.49475111427142
H         7.36303670646788    1.67725560851863    0.80977662238295
H         6.74624778437797    2.14168305011023   -0.75354201863504
H         6.54444032893770   -0.39775579132796    0.70195294706404
H         5.79773823747014   -0.04941980904948   -0.92273967513117
H         3.58550561410416   -0.89638556129054    2.36706972526169
H         5.27064284539497   -1.43284206889801    2.18107064159256
H         3.45444655567355   -2.78426272990497    0.74037595449788
H         5.05263142238092   -2.32036905592302    0.02627337365725
