36
 energy: -47.851698400621 gnorm: 0.146915084610 xtb: 6.4.1 (79825abcba525fcdf90b791dcacef51065a7a4e7)
C         1.80174207713693    0.21605177197827    0.57875265372525
C         3.21354594930240    0.16351622892511   -0.04973640908708
C         3.44738967591884    1.57268217817753   -0.56190060832092
C         4.10685777700832    1.92945620587644    0.84052738150414
N         3.23008413483373    2.60914174868880    1.78594181737422
C         4.08172877308151    3.68573124379199    2.37175211827169
C         4.09588532614075    3.38835252522805    3.90815672005556
N         4.44948104676314    1.97631269180541    4.12221113774420
C         5.41152195613702    3.59862071867810    1.65866924857904
C         5.38143609834447    2.60580799674241    0.78067757072559
C         6.36586489127823    1.86567212887419   -0.01120756992351
C         5.89887515944042    0.39755712801018    0.14182168077094
C         4.52193107673908    0.46955574889213    0.96282307555030
C         4.39335840703740   -0.87087255837751    1.68744566691480
C         4.15331658767267   -1.83882362978622    0.51759835702786
O         3.48022311121787   -1.15004267613528   -0.56488007294483
H         1.59033061748884   -0.75198383111912    1.04575735091736
H         1.06188299944058    0.30761065084301   -0.21779808594717
H         1.75433634937665    1.01603941049020    1.33216639454142
H         2.52715366366831    2.12131828647454   -0.78987151448956
H         4.04265403953975    1.60982400816385   -1.48548535760275
H         2.38176190159954    3.02978752568469    1.39781307632250
H         3.59771263554737    4.66182810964119    2.28315181673972
H         3.09625431834356    3.57690769497625    4.31598967142024
H         4.84370454565468    4.02642754952293    4.39900640246154
H         5.38778165122909    1.71456947312186    3.81585209573173
H         3.81138254214827    1.36396867588877    3.60902209455899
H         6.20334897532569    4.23069734105894    2.02614012775549
H         7.37756474219718    1.97586562512157    0.39701547961704
H         6.36039168164187    2.21558516181757   -1.04869019386704
H         6.55417304148275   -0.10035361344095    0.87135844673609
H         5.79840492360046   -0.16157363364940   -0.79383453836899
H         3.52570434174198   -0.90816282450144    2.35183882595042
H         5.28590783408857   -1.06436327948065    2.29829517230981
H         3.44368310531880   -2.61453966314569    0.83425096310335
H         4.98768774595024   -2.42917412340774    0.13322600221198
