36
 energy: -47.840586740123 gnorm: 0.122495935046 xtb: 6.4.1 (79825abcba525fcdf90b791dcacef51065a7a4e7)
C         1.77498607686843    0.05318112429782    0.45581829127939
C         3.17937205763456    0.15113759556862   -0.18375438273581
C         3.54647581556580    1.60332474469211   -0.42692314385674
C         4.12462617456449    1.69369468684400    1.05178087367959
N         3.32340489394480    2.33698303499372    2.08557846286451
C         3.88919264311757    3.69368306453867    2.34397058387430
C         4.12686404815840    3.87549873532432    3.88007896586906
N         4.85838363205771    2.75198432366040    4.48613191804342
C         5.20322675268890    3.63223438267669    1.59968318862599
C         5.36968257789804    2.42494936479522    1.07794862680109
C         6.44729272180386    1.73270059669854    0.36834929592857
C         5.87794755894200    0.32850642525040    0.05063271726364
C         4.49616882313360    0.22946612077868    0.86062076873933
C         4.27007109869440   -1.16170735779601    1.45380964210718
C         3.96545424272833   -1.96620561237999    0.17980681326202
O         3.43191835854690   -1.09626870532264   -0.84867887881130
H         1.57501168710806   -1.02258666104323    0.50695571629653
H         1.00893838706407    0.57725373063069   -0.11758070175917
H         1.62913389079238    0.37378521925327    1.49783553947165
H         2.86248536918026    2.33902764557127   -0.86362091830365
H         4.33659884252744    1.68670402829832   -1.18684514671520
H         2.32599473272420    2.43618213109389    1.87925370665033
H         3.28404970588267    4.49584993817624    1.91360207567251
H         3.13739836449048    3.96550723915684    4.34267927545604
H         4.70126016242449    4.80400345467286    4.00358936223792
H         5.79641873442538    2.65307851879742    4.09487600783056
H         4.34893249231906    1.88889240692272    4.28357385706767
H         5.84262118504084    4.47256609090831    1.38389836415409
H         7.35242494206314    1.72311037397993    0.98719413175997
H         6.59348702962848    2.35727745378262   -0.51898955742760
H         6.52235284795274   -0.44043094802504    0.50122283782793
H         5.71070001574503    0.15589014129672   -1.01726517705869
H         3.50273690652956   -1.07417218935867    2.22786922426082
H         5.08839044634858   -1.64924675381725    2.00142177045626
H         3.37330766487705   -2.88392157388615    0.29269509369415
H         4.88206223340855   -2.33579076976864   -0.28459348946024
