36
 energy: -47.842351461267 gnorm: 0.133554868212 xtb: 6.4.1 (79825abcba525fcdf90b791dcacef51065a7a4e7)
C         1.76782761234478    0.01249244951684    0.49149131556629
C         3.13911090150885    0.16162495031776   -0.20728636594545
C         3.35000504005234    1.65575498098430   -0.36804329140838
C         4.14420526401350    1.65358361226673    1.00971983674024
N         3.49222116958540    2.29759612365126    2.14315586951666
C         4.02801246799188    3.68202580999927    2.29742591601121
C         4.10273135087279    4.00640371761785    3.82659875276404
N         4.68651464052197    2.99014497879425    4.71604854304830
C         5.32180314412188    3.58559962775964    1.52203385505849
C         5.36807488224092    2.41306082193230    0.90521696818250
C         6.47003298520846    1.64358553295598    0.32420139853870
C         5.80530615369382    0.28652202587941   -0.01251179301546
C         4.45292768673201    0.17180029854342    0.84370858626665
C         4.33778927306869   -1.26318849472680    1.35937018917329
C         3.99321449850743   -1.98222599135313    0.04508509747701
O         3.54905331874201   -1.00853346290175   -0.93158130198552
H         1.59088180842926   -1.05671509020906    0.65076005591292
H         0.94172182399411    0.53378748936617    0.00562275187163
H         1.98920065881820    0.40735945791854    1.49395518048927
H         2.41018408807092    2.21466888969525   -0.30355765955616
H         3.89915827913881    2.08470714469495   -1.21843065289371
H         2.47122296228128    2.23111748417214    2.16266417518238
H         3.33893712993505    4.38443625038703    1.82131520191646
H         3.05639263169202    4.19022849354193    4.09590644321920
H         4.84015505015456    4.81390281184950    3.93364177628683
H         5.69341503513247    2.86396814084636    4.60201173668129
H         4.17401967719589    2.10843332831515    4.78974630821199
H         6.07632588019966    4.35514202863560    1.51528565167508
H         7.22284421785798    1.56951969375396    1.11799902955942
H         6.90803640995175    2.18190523731817   -0.52267763767958
H         6.35344641169421   -0.58350541353247    0.37755074636929
H         5.63658438177723    0.17626376162611   -1.08840679659558
H         3.50624534905252   -1.28176903403069    2.06917424989136
H         5.22703513066857   -1.61464594634977    1.90060917962323
H         3.21919815196314   -2.74320582053843    0.21059126351218
H         4.83239978094475   -2.56860794329820   -0.33485606205860
