36
 energy: -47.838646892106 gnorm: 0.119417001585 xtb: 6.4.1 (79825abcba525fcdf90b791dcacef51065a7a4e7)
C         1.71700841729441    0.09174774873842    0.51744749729592
C         3.09636417264571    0.15283073966341   -0.17868123995240
C         3.48116929611747    1.56524926887878   -0.57835940105780
C         4.09452985338565    1.84679243623232    0.86161018420582
N         3.24644055188254    2.45682716810781    1.87803285550369
C         4.02971769240523    3.58599071906909    2.46025604352233
C         4.06076843058934    3.50842430375136    4.02300776103033
N         4.78111489658468    2.31925004045526    4.50433017548033
C         5.38278030266072    3.46501206199055    1.79767692736982
C         5.37417918227086    2.51610106001944    0.87196337020433
C         6.28895621274302    1.89486392256969   -0.08784423585486
C         5.85252661868192    0.42176635823808    0.10286965868697
C         4.42471411894693    0.36062273868059    0.83281144114600
C         4.36628408035561   -0.96763961103333    1.58823311404427
C         4.03571162538355   -1.84038466747124    0.36670539133999
O         3.41140845243390   -1.13366292594593   -0.73330529099285
H         0.93964943500524    0.67599514660612    0.01321628988749
H         1.81400960805124    0.52665148177689    1.51329742254672
H         1.33008875736745   -0.93785697743361    0.50925776884432
H         2.76138659011798    2.32851882101431   -0.89322297835976
H         4.33656800824448    1.56890467245069   -1.26901678978490
H         2.46538993306170    2.87340063715753    1.36455076415887
H         3.49547485205588    4.46623551592395    2.09332223964138
H         3.00510871438054    3.46589354606160    4.31441232797395
H         4.59332535824301    4.35410526588832    4.47964061943538
H         5.70032542879319    2.66010517902718    4.79006286815833
H         4.98293465692046    1.67313986655749    3.73796973901190
H         6.20617719161656    4.12721264096196    2.00993548502323
H         7.37431561619633    2.00830781210030    0.01916376501722
H         6.17566265766946    2.32568453914395   -1.08804294128199
H         6.58811893714523   -0.05334504999096    0.76824729928784
H         5.78699333692354   -0.07071914685691   -0.87249563067432
H         3.61001968468858   -0.98643638919131    2.37775401051659
H         5.32794008205040   -1.28407368462531    2.01520788768697
H         3.26030420317888   -2.56373762074712    0.65146449257014
H         4.94275405103109   -2.32336969980517   -0.00265964452259
