36
 energy: -47.841916652082 gnorm: 0.123035918745 xtb: 6.4.1 (79825abcba525fcdf90b791dcacef51065a7a4e7)
C         1.72346608153602   -0.12268317354106    0.27673152037000
C         3.17372399471683    0.07589948931414   -0.22153103719232
C         3.47947705702183    1.52884332394350   -0.53492058260408
C         4.09271649919241    1.70184241274156    0.92213084464898
N         3.40606579792039    2.36498852691275    2.02361210744109
C         3.96248773415975    3.72081924338844    2.30580877321398
C         4.19601090843530    3.99426206348927    3.82892057883871
N         4.89277209457636    2.94866574677647    4.59439946034247
C         5.27828997049891    3.67032955889498    1.56382454744047
C         5.29300291871196    2.50483257902253    0.93227726778239
C         6.39292552506105    1.74560073187574    0.33417988328757
C         5.91086532669511    0.27755428124089    0.23765728231588
C         4.44004736307424    0.21999777218742    0.87686295320354
C         4.17551230147374   -1.14539112249290    1.51254468957877
C         3.98417764343312   -2.01189280706864    0.25729253988554
O         3.55560105570989   -1.16412166195063   -0.83670918512689
H         1.56720679330132    0.40009102427702    1.22655850256603
H         1.53874059765706   -1.19742802813019    0.30940503186949
H         0.92348386241488    0.32851545405824   -0.32850235122943
H         2.63470620386763    2.21893791373042   -0.63461157050321
H         4.22312401871629    1.69896186596678   -1.32661297372975
H         2.38739266119350    2.34480303606042    1.92803496492344
H         3.26104036290357    4.51713491083856    2.04362625338091
H         3.28358066392420    4.27026694945369    4.36969342989784
H         4.84413524185130    4.86924931484152    3.97602222141032
H         5.80465444639798    2.89145013702233    4.13836179789366
H         4.35304492179999    2.08087256473647    4.62797718074062
H         5.98917059450187    4.45915434360062    1.74807961825692
H         7.29805761610725    1.94012718348646    0.92173465332104
H         6.63824765588349    2.09898128245203   -0.67268580714532
H         6.55653046492313   -0.43529617929865    0.77105683024426
H         5.93196247640576   -0.08066010959439   -0.79646621231978
H         3.23434812676418   -1.11358458853206    2.06827011732147
H         4.97103514627261   -1.60440163999446    2.11559776732005
H         3.17900026423735   -2.69887474758599    0.54940402125769
H         4.85668667393607   -2.58900153411042   -0.05592391801839
