36
 energy: -47.837897794722 gnorm: 0.149945471246 xtb: 6.4.1 (79825abcba525fcdf90b791dcacef51065a7a4e7)
C         1.77227662583443   -0.09879083396779    0.61190543298996
C         3.11937369167678    0.09596865272668   -0.12181580769063
C         3.38046593221140    1.51620478442540   -0.58818892329391
C         4.15783363507310    1.82709509330624    0.76386020844959
N         3.38346219963014    2.40783186953168    1.85363382633074
C         3.94923479478587    3.75220214325802    2.16999940717086
C         4.08143007462284    3.82964715888034    3.72746539001724
N         4.72527645088727    2.72191023984112    4.45071257347699
C         5.36120176380567    3.56226829549102    1.66532154473515
C         5.43294598196035    2.49457039769497    0.88280916089633
C         6.53566531458908    1.66130721268417    0.39941927720040
C         5.83251145520420    0.36615478382827   -0.07493696861779
C         4.49612163205457    0.34328892038767    0.81317420444374
C         4.47560218607479   -0.95516968437102    1.62060284217836
C         3.92025484738009   -1.88278119854395    0.52779990273982
O         3.44207860666234   -1.19736270910786   -0.65574669319004
H         1.61321018658527    0.48635737459928    1.52414474217114
H         1.48399131398744   -1.11018612618826    0.90214447131724
H         1.08971872983702    0.31837911184056   -0.14304074852837
H         2.50419846020372    2.15193105537291   -0.75496435762306
H         3.98248756785091    1.69591922845417   -1.49040875094449
H         2.38883875113165    2.42282070337429    1.61334874080129
H         3.33201445929823    4.50428641870345    1.67170728864394
H         3.06073771582572    4.00875529192836    4.08418699931135
H         4.68776497036417    4.71752379751037    3.95404826944022
H         5.66354837587798    2.50627869064775    4.11023903401449
H         4.08240957343459    1.93135012262143    4.53577002556135
H         6.14497894054873    4.22133220992026    2.00128855786292
H         7.31463843389906    1.48115658238949    1.14980043856130
H         7.08993362493660    2.10277025604479   -0.43528804188867
H         6.40982561729784   -0.56860038219373   -0.02498242765855
H         5.55663194656570    0.55997573009955   -1.11632928755734
H         3.67636268788467   -0.88503836381746    2.36352290153782
H         5.48203839161624   -1.29059620579722    1.90660189275746
H         3.12850862119367   -2.51249351948198    0.95463033078525
H         4.66629904038672   -2.62246155091757    0.22993740488906
