36
 energy: -47.842739005282 gnorm: 0.129819444910 xtb: 6.4.1 (79825abcba525fcdf90b791dcacef51065a7a4e7)
C         1.76184598167066    0.04349137719686    0.24112005866290
C         3.23372692096908    0.08614333971387   -0.23078668925278
C         3.43807104772396    1.53376784910670   -0.63744440439512
C         3.99418139426162    1.84781241988879    0.81895782997722
N         3.22573334296670    2.45447081062178    1.89875693453852
C         3.93929630421032    3.69276423399955    2.32884361069801
C         4.28466243659582    3.59137497983855    3.85187219364745
N         5.15706820056124    2.47050336896949    4.23561786092852
C         5.22458465384970    3.63371853868307    1.53576555677674
C         5.23958831743742    2.57451931429078    0.73869369166268
C         6.25821416006447    1.79218605109123    0.03560102349952
C         5.93084265493923    0.35069812456710    0.49581779127906
C         4.39265256045915    0.38422526668578    0.95194196877165
C         4.17465630534167   -0.88451818351831    1.77724467301294
C         3.97268221941056   -1.85034732962657    0.59848575119951
O         3.74788113064912   -1.18163661976456   -0.66702759748460
H         1.73253738703575    0.65351387710007    1.15045755301763
H         1.45672367443795   -0.98284987318181    0.45038444165647
H         1.03213778254608    0.27116202461944   -0.54979827618675
H         2.50232022352822    2.01530423849797   -0.94125313578983
H         4.13199273777499    1.74931734233820   -1.46251353897697
H         2.22554141284644    2.61154600243333    1.74982443215568
H         3.40423005703076    4.64041563478563    2.22614177179020
H         3.32500861049042    3.55098005923010    4.37967490764889
H         4.76565790568130    4.53671399861038    4.13872447274980
H         5.92826953376627    2.40295355486117    3.56969074329417
H         4.52243267547575    1.67062701708484    4.28977929706464
H         5.91585094405905    4.37926135266096    1.89334431906143
H         7.29096118043548    2.03798320474752    0.31008710684029
H         6.20946686964480    1.77179817232895   -1.05803846244016
H         6.53478937188090    0.14204214288436    1.39095206239655
H         6.11965387601188   -0.42946728729913   -0.24840414613731
H         3.29385973023172   -0.85673572949903    2.42459151593933
H         5.06181588848717   -1.19027386696096    2.34880533451779
H         3.04718735817874   -2.38993798651557    0.83907897216757
H         4.68639315136303   -2.66313723559768    0.44875161161098
