36
 energy: -47.845200192725 gnorm: 0.137045609317 xtb: 6.4.1 (79825abcba525fcdf90b791dcacef51065a7a4e7)
C         1.85080447406361    0.14943637914611    0.62306155640584
C         3.15290805899347    0.14426386199916   -0.21087377889571
C         3.47426926957683    1.54626190920174   -0.69447709890463
C         4.13581579524690    1.83003618975237    0.72355623429169
N         3.37196650424776    2.41685031830025    1.81749239729418
C         4.04540476936785    3.64386749954493    2.33559181470889
C         3.96252441926010    3.65798735664479    3.89831543177315
N         4.59929605592617    2.52066264643256    4.58075232594050
C         5.42026682616382    3.50500617350178    1.72330332275440
C         5.37808879744285    2.56337008852361    0.79110477405290
C         6.45301889563853    1.83658629392102    0.11265520854121
C         5.93030240318080    0.38442355317072   -0.00920477759769
C         4.51718238658013    0.35613905461208    0.75072541042155
C         4.40198757604116   -0.93217854092332    1.56639983152499
C         3.89705570366796   -1.89841847083314    0.48264881286341
O         3.37461008321102   -1.19722087220593   -0.67260270839137
H         1.50605146561546   -0.88564138444875    0.52487548420602
H         1.09946201140279    0.84627357598337    0.24866873185104
H         1.94012963489319    0.30612030327252    1.70811038075147
H         2.57513395937622    2.09557772913584   -0.99383383895069
H         4.20018648314844    1.58573052680157   -1.51922820399315
H         2.35675827296655    2.32834640661714    1.72391508861032
H         3.62308694720433    4.62615547249517    2.10833704082543
H         2.91563541464231    3.79931745166262    4.19019236186448
H         4.51927318321607    4.52210080946857    4.28644619639685
H         5.46988808681932    2.24420748561833    4.12422690431930
H         3.91659949537264    1.76750848535378    4.47037975058612
H         6.34228031236422    3.98902689628115    2.00108164931346
H         7.41383896603433    1.89213500092655    0.63807350287382
H         6.66691559931379    2.23222792453007   -0.88562089561483
H         6.50252388896108   -0.29856308494651    0.63550146237197
H         5.89201884652410   -0.06771030836310   -1.00533899350716
H         3.61720889481286   -0.72129459508710    2.29803005003930
H         5.30584049441936   -1.22609657364101    2.11765507661153
H         3.18536907508761   -2.60684832595753    0.92673573812254
H         4.74678176930336   -2.46174101842312    0.09141441346167
