36
 energy: -47.838941608942 gnorm: 0.123653345704 xtb: 6.4.1 (79825abcba525fcdf90b791dcacef51065a7a4e7)
C         2.02905133015190   -0.63841314073074    0.71605095753975
C         3.20481517858611   -0.09570386489555   -0.12893110548316
C         3.12792530759598    1.41067217100814   -0.29525285890829
C         4.11213157431745    1.62753526848495    0.93490915574756
N         3.45520375478822    1.95069259247344    2.19527738835500
C         3.79762267544034    3.36928548371804    2.50810438670181
C         4.01825353336760    3.29605138983703    4.05572591992469
N         4.23390090927474    4.49228435045872    4.88471846761542
C         4.98604727866391    3.64198710722390    1.61496043376583
C         5.19339460497783    2.58088117852848    0.84781446569169
C         6.33308047563645    2.01396207659881    0.12414183856123
C         5.88653874325564    0.59139760773826   -0.29271525079844
C         4.65164480987431    0.22926668225603    0.66598192202779
C         4.88636582355868   -1.19253957527197    1.17757736078527
C         4.41144046457062   -1.98112967920025   -0.05354555149673
O         3.65121645751263   -1.16438992252791   -0.97779076165424
H         1.04380915282735   -0.24447965198769    0.44403003075155
H         2.16372914412266   -0.42202259136638    1.77685470213190
H         1.90240156847397   -1.71734540953925    0.54364217245716
H         2.09588931222629    1.68800893369567   -0.05485182421143
H         3.52055576838987    1.86064733114938   -1.21834095908833
H         2.43875911275430    1.83237186155487    2.20410292090347
H         3.00851781066357    4.05477438287540    2.18825253225326
H         4.81823259508627    2.55903504138391    4.18982783571826
H         3.13049410700446    2.83138310839087    4.50658434781568
H         3.57501826021297    5.26970126229538    4.81937320655886
H         5.16577225196242    4.90606702031817    4.80792266640027
H         5.56813173933947    4.54455803229876    1.52502081483223
H         7.23680269188491    2.12450769243970    0.73519917935428
H         6.56468535494435    2.55909268248649   -0.79674419328617
H         6.73767739688453   -0.08841861106283   -0.14116584259788
H         5.61949286912502    0.60820081174229   -1.35411912800349
H         4.25173246032295   -1.45724588360127    2.02775585564268
H         5.92667848139759   -1.41655860668390    1.45104638998120
H         3.72982350105761   -2.76012966005129    0.31270744963854
H         5.12232293613725   -2.36250519606737   -0.78950062159931
