36
 energy: -47.845295757302 gnorm: 0.136746744297 xtb: 6.4.1 (79825abcba525fcdf90b791dcacef51065a7a4e7)
C         1.90001245422444    0.13129198940750    0.68062260100061
C         3.18326914896329    0.17086521793310   -0.18114005106633
C         3.41934059929471    1.61201082242766   -0.59358804045127
C         4.08783314017963    1.88646696759808    0.82302119186707
N         3.28688963025515    2.52000017306443    1.86303949909176
C         3.99548800090553    3.71460195606235    2.40923742495289
C         4.14590479932027    3.39294563774959    3.93340460865222
N         4.54712738125552    1.99003534593499    4.12200171985300
C         5.34832134633095    3.62360307547180    1.74141524133106
C         5.35995942561201    2.55745621658654    0.95360366908581
C         6.41614568789880    1.84307396941012    0.23380383009538
C         5.77365498073602    0.47128790511903   -0.08598938607695
C         4.48024118946165    0.41574374571332    0.86227097287269
C         4.38096513637614   -0.89556147547570    1.64264252837006
C         4.00528246653667   -1.82815010320166    0.47978696703899
O         3.59827354686643   -1.10010142826092   -0.70491655934092
H         0.98589365605216    0.42978643021644    0.15605705423766
H         2.02260044071048    0.79965996418010    1.53415877429570
H         1.65232983365906   -0.89840329001017    0.97767602969892
H         2.48847421401746    2.18475668891362   -0.66609030103650
H         4.04001174849098    1.74204714924012   -1.49168928594551
H         2.36526482829839    2.85247397131270    1.56756311142056
H         3.52476730847809    4.69239754394036    2.27799509541261
H         3.20645453327213    3.55241182521309    4.47483480027467
H         4.89103789981152    4.05689258572951    4.39303254933427
H         5.48544904275408    1.85965370688402    3.74078460792910
H         4.01594463233225    1.35965855512556    3.51704892979751
H         6.12015132549534    4.35790627790279    1.90458085528598
H         7.36692516726338    1.76623616096458    0.77458066803014
H         6.73621604761263    2.38714377233950   -0.66083704525297
H         6.47253823042834   -0.37470366182291   -0.01240408589053
H         5.43185986309588    0.47099172432274   -1.12586920758999
H         3.56742554074222   -0.99880163729008    2.36591786188553
H         5.26466304651533   -1.18778709569510    2.22651105270223
H         3.23559707599479   -2.54413585235026    0.79685592442655
H         4.87731089639410   -2.36032062890007    0.09405132458582
