36
 energy: -47.839360502389 gnorm: 0.125380877789 xtb: 6.4.1 (79825abcba525fcdf90b791dcacef51065a7a4e7)
C         1.79065611175611    0.04285536905655    0.62897883365802
C         3.15413422628364    0.15898704806747   -0.09101381707090
C         3.41206349904181    1.53883970850219   -0.66740149128357
C         4.08558168422424    1.94275014375227    0.71542875309880
N         3.26284233712313    2.54084605440976    1.75940855413791
C         4.07949014530106    3.63743557282575    2.35781885903849
C         4.12327129693099    3.39480479920217    3.90325957912834
N         4.47114892149419    2.00341045751791    4.23144950737581
C         5.45203402583936    3.50837529476825    1.73822875546907
C         5.36180297918097    2.61711282704601    0.76100773508896
C         6.36228221862344    1.96223978803059   -0.08407540750017
C         5.99992454279644    0.47937688675700    0.17413652755897
C         4.53029883580292    0.49011777356613    0.81856401176636
C         4.33254144351317   -0.75286668321202    1.68703290354824
C         4.00714682067416   -1.77564693678554    0.58651898611448
O         3.51962571553749   -1.12739955075702   -0.61403590270078
H         1.73024728852620   -0.95765717258645    1.07080066116478
H         0.97811310895305    0.27856092521970   -0.05984937292463
H         1.58366611804610    0.68422632003390    1.49826486530182
H         2.61404102386786    2.09722466700873   -1.16857302106509
H         4.20427542553838    1.45056535164471   -1.42459089154078
H         2.41882424160811    2.96131301268841    1.36181792015150
H         3.60786320643508    4.59438012054481    2.11967643240183
H         3.11221809517272    3.56317035503223    4.29128967783281
H         4.88210120005415    3.97671952665201    4.44442418706263
H         5.47192020135391    1.80040249594664    4.23569282847567
H         3.88984388707636    1.33176218183579    3.72501991266063
H         6.27064623538605    3.98702532570988    2.25039452775791
H         7.37028994274053    2.24060578836060    0.24570930467569
H         6.19263872788073    2.17351904943974   -1.14493418734597
H         6.62579747156106    0.15487986514856    1.01825679031963
H         6.12534169248687   -0.12679710846332   -0.72863563924088
H         3.51626721041783   -0.60299495214488    2.39897894359502
H         5.23016836338923   -1.18257834650919    2.15268724455180
H         3.14638910153808   -2.33464125346165    0.97665408767780
H         4.86014894670946   -2.39910058589176    0.31061332695085
