36
 energy: -47.845017330009 gnorm: 0.140654224142 xtb: 6.4.1 (79825abcba525fcdf90b791dcacef51065a7a4e7)
C         1.74837235217292    0.14851542237483    0.57058881832341
C         3.14415014223077    0.11842734190698   -0.09412744471887
C         3.42200841390421    1.52024211952669   -0.60447421495425
C         4.02873604870866    1.91067871101367    0.81271701905103
N         3.11708531456952    2.57445248759602    1.73619425075470
C         3.91995099286329    3.64966889957049    2.38951929554383
C         4.19412261696035    3.28095185935013    3.88553108521549
N         5.10925820440349    2.16605222527172    4.17575752721467
C         5.23671022142711    3.64583207422170    1.64752485509692
C         5.29898050335625    2.59725202335585    0.83878884468311
C         6.30705271199829    1.93791357495335    0.00629472529132
C         5.87196579282531    0.46075194290415    0.16614431795248
C         4.45106765726001    0.45110708504635    0.91190402745221
C         4.29744832918739   -0.83021728008598    1.73224895657381
C         4.01472524320759   -1.87400627923822    0.63969953205858
O         3.50640746309583   -1.19859361531967   -0.53701808061286
H         1.76894432126490   -0.75621513612158    1.18777641353110
H         1.12663793465267    0.06479888033005   -0.32199474301264
H         1.42459524598485    1.02751004428573    1.14712730442838
H         2.51902689517635    1.97241500745088   -1.02870373886557
H         4.20490191387968    1.59230070220047   -1.37298789820109
H         2.33176632928935    2.94836960496570    1.19703057442460
H         3.29445216177029    4.54547313946266    2.42376414403164
H         3.18667854600892    3.19512292599387    4.30841730828061
H         4.68375800601898    4.17339833707478    4.29917731226817
H         5.96056939091359    2.24717855217979    3.61767045260052
H         4.72636861261962    1.26232823260139    3.88909326979038
H         6.01573346602870    4.36769047202279    1.83079780025230
H         7.29571995992062    2.07063831262983    0.46153802838395
H         6.34277448488647    2.22148594125844   -1.05065842156237
H         6.57979247034706   -0.06773635326415    0.82130523550258
H         5.91014189275008   -0.06939810329549   -0.79075564866030
H         3.44071822730491   -0.69852299478607    2.39880918758446
H         5.26049554221866   -1.13655913669695    2.16342754468484
H         3.36984829306549   -2.72237702891250    0.90424575433055
H         4.98653016861385   -2.26734548179319    0.33423187241772
