36
 energy: -47.841730083673 gnorm: 0.148011468843 xtb: 6.4.1 (79825abcba525fcdf90b791dcacef51065a7a4e7)
C         1.79151166909256    0.01764667994419    0.57682575867971
C         3.13770062050719    0.13035984543428   -0.17551705258915
C         3.38183913053509    1.59033453454430   -0.50960390200489
C         4.08038727846339    1.78991832906282    0.90502924531062
N         3.27892026950613    2.46967790734441    1.91502451977077
C         4.09160249822554    3.66281279791367    2.29383048905206
C         4.03867776000767    3.69649374782123    3.85755622423453
N         4.73478757068646    2.70415353418937    4.69146134908402
C         5.47011005025570    3.50577795289668    1.69426205588516
C         5.36028669612326    2.45863026084512    0.88873603076248
C         6.38116025973822    1.81029179726690    0.06323156530772
C         5.87120959236601    0.34952580823827    0.11774813043663
C         4.44977887843862    0.31336091980778    0.86167617259471
C         4.27402838866625   -1.06784882670959    1.49391685944361
C         4.00843880922487   -1.94457824191125    0.25945349918813
O         3.46319098865696   -1.12082315750814   -0.80043609641380
H         1.47343397615115   -0.99053648752222    0.86366091122202
H         1.02388867131764    0.33387576798113   -0.13100307657768
H         1.78911940658319    0.75124420288833    1.39639194877682
H         2.58200183565776    2.29727648206308   -0.75516452341306
H         4.26420350681255    1.74016246362472   -1.14812770392439
H         2.43102373794893    2.80283578955219    1.44885429073077
H         3.65086693818937    4.62009858276646    2.00358436136467
H         3.01133135385185    3.64851075790597    4.23623803591773
H         4.42002598213586    4.66052761093819    4.22158778407355
H         5.70995847567981    2.69431564117138    4.38861102067644
H         4.47698889746688    1.71935630144808    4.59548142179511
H         6.27932283503261    4.18371515830337    1.91133702283229
H         7.41240038342833    1.79355030344170    0.43550671024117
H         6.49080424539999    2.18343775186899   -0.96028178454492
H         6.64999801887822   -0.26277327694153    0.59538056252135
H         5.67655191797938   -0.06174923940442   -0.87780963139957
H         3.41113575792051   -1.22864494929223    2.14598536079155
H         5.12911594438800   -1.45002238685658    2.06836346607180
H         3.32799905204263   -2.78609256766277    0.44503177278107
H         4.93132433225019   -2.39190573090971   -0.11552845749826
