36
 energy: -47.828895544824 gnorm: 0.150641624969 xtb: 6.4.1 (79825abcba525fcdf90b791dcacef51065a7a4e7)
C         2.07108232192016   -0.63560614013950    0.79221351512089
C         3.22996114322821   -0.10998634425413   -0.08623528123634
C         3.04712361655485    1.38740012193684   -0.25100134446327
C         4.02876558302934    1.65453803611871    0.97129416235305
N         3.59169691005782    2.11711307443243    2.28259423076199
C         4.08146656697090    3.51040336781017    2.49796590275750
C         4.72389919503489    3.71062254832187    3.91089410274242
N         3.58291539115246    3.79546714156309    4.83591466594228
C         5.06317033371409    3.71302127343054    1.36675908449662
C         5.06598776762837    2.60359495627161    0.64107548172015
C         6.07349938458496    2.02348324402684   -0.24907826751980
C         5.74688979051035    0.51110651103922   -0.19521102799957
C         4.57381520948004    0.23674015482582    0.86489323853662
C         4.79299691950644   -1.20719785209616    1.31805868745312
C         4.41473868533116   -1.98380515723764    0.04648729770791
O         3.83601236921555   -1.09341607692367   -0.93916815951608
H         1.26902010262129   -0.71846699299135    0.05078827794277
H         1.83630122983390    0.03032014121747    1.62389108060805
H         2.22368556008673   -1.64522081212426    1.20117590534577
H         2.03893919245676    1.81537615615210   -0.23660624267669
H         3.48196086719301    1.76520447967807   -1.18743517204204
H         2.57704199648605    2.00429555176022    2.35319833795800
H         3.28080320741293    4.24798347174362    2.39896877676601
H         5.21876207593451    4.68775804842522    3.87268624642094
H         5.50384436536190    2.94611038594342    4.03136564151495
H         3.40596543007218    4.74510762700096    5.16704161017040
H         3.64936245463895    3.20104266966752    5.66521691410021
H         5.66180455939147    4.60756589604670    1.31223776757758
H         7.08368257389136    2.20126006619233    0.13854331905836
H         6.00669535201569    2.36742093000615   -1.28642261061588
H         6.54141372179543   -0.20954640110390    0.04757564331743
H         5.24107971274916    0.22838537929889   -1.12386538377035
H         4.06563568050778   -1.43318353677551    2.10260214435823
H         5.84171619139047   -1.39470665593171    1.58684953656942
H         3.67278131067211   -2.72591321859790    0.36953338283344
H         5.25646776015923   -2.46244999523400   -0.45831196503632
