36
 energy: -47.840896403055 gnorm: 0.132417009162 xtb: 6.4.1 (79825abcba525fcdf90b791dcacef51065a7a4e7)
C         1.73032086957254   -0.18057764967596    0.36706457224561
C         3.16447516885482    0.10193773674217   -0.13725196766609
C         3.45235008673583    1.53746944290243   -0.53615106611845
C         4.13824155781106    1.81774057531610    0.87097051917536
N         3.39117231587368    2.47798328997039    1.93421086115234
C         3.98025132252299    3.81343812324890    2.24576112096317
C         4.24429869551208    3.94040188245255    3.78307462448727
N         4.60850021664921    2.68136708320189    4.45157619500888
C         5.28285953423048    3.71492869044003    1.48554202186340
C         5.37069860469180    2.56906651602606    0.82468209477925
C         6.37576341701580    1.70526669334349    0.20204428378295
C         5.81868004177676    0.26148513297037    0.24689907060765
C         4.39632831264001    0.32162500214047    0.98750751256421
C         4.23544393587008   -1.01194963012301    1.71829600898407
C         4.03980638626479   -1.89423960578348    0.47475975229072
O         3.68809231095606   -1.11365920202232   -0.69409653579691
H         1.59720555488000   -1.24522310883255    0.14640310762352
H         1.03570450061556    0.43101426272286   -0.21062998239516
H         1.49070546263136    0.01622331277946    1.42239088753974
H         2.54778377819793    2.15516930308927   -0.53979874217437
H         4.01138843998117    1.75586733011458   -1.45729516825996
H         2.38442409356564    2.42652675719498    1.75800745426585
H         3.31928131853839    4.56740168166981    1.81039421751377
H         3.33247889606024    4.30314520398893    4.27107550299584
H         5.08089612225777    4.64896698435917    3.85619763633986
H         5.58475295423584    2.50560709888298    4.20906347494001
H         4.09975141257207    1.90606151555511    4.02079339448356
H         6.11662474076069    4.38320837424299    1.62619612891751
H         7.38772906020159    1.67839176308077    0.62338564042152
H         6.64084594156826    1.89201274372232   -0.84375515431884
H         6.46885727437183   -0.34877969674327    0.89063871170855
H         5.79397349218969   -0.24793654150692   -0.72163238854030
H         3.40100648313997   -1.12422689613740    2.41596382104804
H         5.04790542890879   -1.52086988437527    2.25507042290349
H         3.30244242016436   -2.65620128483349    0.75987849424341
H         4.96924201421518   -2.39975569788270    0.20451184556057
