36
 energy: -47.838781812121 gnorm: 0.144064789693 xtb: 6.4.1 (79825abcba525fcdf90b791dcacef51065a7a4e7)
C         1.67333978590051   -0.01143142681858    0.34329872655753
C         3.11273504184316    0.12475467426215   -0.20491957280799
C         3.34284882400726    1.59649722269937   -0.49434184551087
C         4.12141185189163    1.76006906141418    0.88263818949125
N         3.36909288195852    2.31328954554356    2.00177900289655
C         3.96551489753449    3.61075426416383    2.43581049933686
C         4.08992582183383    3.73405673714448    3.99096066798876
N         5.01373538835125    2.86207622041438    4.73320833092252
C         5.28506811751977    3.59915535290842    1.69887760168609
C         5.33532775512827    2.54216840141624    0.90031377068671
C         6.38941568761906    1.70331830565681    0.32654346690521
C         5.76362170146809    0.38360405922816   -0.18687176820629
C         4.47692269284469    0.28400369633467    0.76690363249501
C         4.45231718878704   -1.07694492924812    1.46373235455835
C         3.99615398001404   -1.91309696515971    0.25714337334505
O         3.47818564074882   -1.11314191487083   -0.83419264083831
H         1.07585176221274    0.29866833910434   -0.52083512712728
H         1.55782797506817    0.65027776001623    1.20298793663536
H         1.51539526246928   -1.06487982233301    0.61745159440679
H         2.44538502370123    2.21782972138296   -0.58550810263853
H         3.84439327458826    1.82988106613738   -1.44445400260776
H         2.35911282976694    2.14878960211354    2.01261731536283
H         3.37114923947506    4.47228184823818    2.12055438564239
H         3.14934523821836    3.51543171509683    4.50927928605567
H         4.50154726017755    4.74421142469570    4.12310464791971
H         6.01360959866259    3.06024111892431    4.67192506360017
H         4.82762776526477    1.91127585874501    4.40634365622241
H         5.98073118295271    4.38880549723655    1.93136690502115
H         7.14065407621152    1.37857146790124    1.05627329371356
H         6.94457935936386    2.12893176223903   -0.51576631178538
H         6.46279525626515   -0.46420837876545   -0.14300000453913
H         5.44732347605838    0.56757732850129   -1.21851283892919
H         3.78099599592043   -1.10742579533732    2.32630477347709
H         5.41214740120826   -1.36771018531388    1.91251045342497
H         3.19600771008522   -2.58668671680127    0.59124920699970
H         4.75977540525204   -2.57339142364189   -0.15917931922967
