36
 energy: -47.843844174363 gnorm: 0.133916092988 xtb: 6.4.1 (79825abcba525fcdf90b791dcacef51065a7a4e7)
C         1.75887368191249    0.05346094952683    0.44617069218845
C         3.17198801947102    0.25545197718779   -0.14818286033441
C         3.41672910680158    1.70836997954514   -0.51132855923561
C         4.07711504480319    1.93638303664669    0.91726885892296
N         3.24651545612915    2.69286194492381    1.84590057665528
C         4.07280249559463    3.74962035095793    2.50013954627648
C         4.28265707872447    3.18302418207651    3.94378196336378
N         4.75139221234027    1.79061955072718    3.86502645865156
C         5.37995498357943    3.68851420684954    1.74380382714835
C         5.34379728316954    2.62934290926608    0.94737405051079
C         6.32180983568211    1.91305046331188    0.12615558887199
C         5.82264805171165    0.45253691520822    0.24697234889627
C         4.39866195787655    0.44967061336878    0.98687603802768
C         4.31162379005721   -0.91063989089081    1.67993920735286
C         4.01827988100422   -1.77268015686620    0.44142073665580
O         3.54619389513252   -1.01610354009775   -0.70049004061724
H         1.73849048942875   -0.21312115667297    1.50843225466616
H         1.20231145188835   -0.61397259567535   -0.21340379906711
H         1.22099592058676    1.01010749953572    0.37285848507297
H         2.52123939088314    2.33693098007156   -0.56439322204563
H         4.13907682693306    1.92651362163621   -1.31092537961906
H         2.38559413431479    3.07073407648688    1.44184052908401
H         3.52045816368547    4.69201587979264    2.54128716537619
H         3.41106086516443    3.22867051440744    4.60663893910176
H         5.09355745602883    3.60573768899043    4.55292939954350
H         5.37195044534834    1.74575033956115    3.05529339707916
H         3.96185764539014    1.17098766786653    3.66960541138986
H         6.24734170227902    4.32691153834436    1.78423693260831
H         7.35482861279296    1.93050424374389    0.49343315639064
H         6.31550791369671    2.26609067163032   -0.91026236104419
H         6.56591522491864   -0.16098187920777    0.77678638609603
H         5.69079283273873   -0.04932780430731   -0.71683262718383
H         3.48419793909597   -0.97059398605279    2.39226243048969
H         5.19133491980716   -1.23269878676152    2.25405300370008
H         3.37401583986067   -2.63773208668730    0.64682989089346
H         4.95355863797555   -2.24971196033958    0.14121190740812
