36
 energy: -47.815462489009 gnorm: 0.161226455846 xtb: 6.4.1 (79825abcba525fcdf90b791dcacef51065a7a4e7)
C         2.19688276321169   -0.20370774184274    1.20705080476384
C         3.17500709832590   -0.16176276306660    0.01019573360611
C         3.11237993035613    1.28184078269752   -0.45330224411735
C         4.03180795347307    1.68044979965259    0.78150670090855
N         3.56015152751688    2.16145609819742    2.07405692223006
C         4.00100391483410    3.53901217511381    2.44216788456773
C         4.51056828178208    3.46794156325456    3.92016204444656
N         3.35752802053110    3.61909771645848    4.82146981184957
C         5.11601341176780    3.65343634812591    1.42822200157077
C         5.13629562911739    2.59786632493540    0.62646631295835
C         6.25641324940073    1.99010322415321   -0.09460492737805
C         5.68398590357221    0.65011976298759   -0.61770172470371
C         4.68058575943339    0.31636815663261    0.58936086891092
C         5.08267504903953   -0.99351845850119    1.26824092326785
C         4.52379959791094   -1.98924800223941    0.23903104151810
O         3.36210255705330   -1.50008841566789   -0.47540332604159
H         1.36805467207476    0.48857537054449    1.02355909033947
H         2.74067357635738   -0.15061816612848    2.15137099023915
H         1.66069802905308   -1.16360095478036    1.23820749441093
H         2.10276613479729    1.70028714536759   -0.37989063508345
H         3.46402266218412    1.62810915837033   -1.43573472269014
H         2.61060287259773    1.96423189405552    2.40070256037730
H         3.28360984902040    4.36188615374833    2.38639240955534
H         5.16065805378329    4.32176146509590    4.14268796244297
H         5.00581341551327    2.49453650654085    4.04066758383985
H         2.62842422968847    3.01905097838724    4.43272185679310
H         3.06792517000112    4.58905971031647    4.67724149259352
H         5.95281055814557    4.30752371023888    1.61121373840674
H         7.06203584735520    1.63744660147147    0.56032314368208
H         6.72016466229084    2.54148856824382   -0.91907330787356
H         6.42429032145723   -0.11222969064150   -0.90112191250276
H         5.19895583604317    0.84603198731491   -1.57923085331523
H         4.77393663645719   -1.04510113761796    2.31592991645598
H         6.16178776330818   -1.19468363702036    1.31587046327557
H         4.19303909225471   -2.86776843284457    0.80857757815619
H         5.28829749753501   -2.26357362631275   -0.49084528480613
