36
 energy: -47.846349776866 gnorm: 0.136933375761 xtb: 6.4.1 (79825abcba525fcdf90b791dcacef51065a7a4e7)
C         1.76684768532528    0.05543033651034    0.62672924300018
C         3.13420143801915    0.16939445355208   -0.08622545834498
C         3.37252105081891    1.57959967004519   -0.59344197820977
C         4.12690698371262    1.87865485705160    0.77420491664006
N         3.23731552251950    2.50750656735739    1.74254650166116
C         3.97941799812741    3.71541314771360    2.20919717573645
C         4.12328409966575    3.63396634987388    3.76542420522850
N         4.60669977903949    2.34179175384911    4.27659913892178
C         5.33818612485248    3.62207537583371    1.55386323535071
C         5.41262123948422    2.53590814004573    0.79745606185502
C         6.52210340612170    1.72555623068905    0.29113367654212
C         5.90050309814289    0.31093417183587    0.19461166488647
C         4.46816981186045    0.40117618805415    0.91258086911492
C         4.34315842172604   -0.92606092250846    1.66169407259015
C         4.12500223712365   -1.86857629243738    0.46705408585291
O         3.45297739046040   -1.13766786636661   -0.58811841871153
H         1.58485808442631    0.77569769137719    1.43169868556283
H         1.66424643898773   -0.97263441637969    0.97719090779006
H         0.88435421323201    0.20098594269383   -0.01348836583607
H         2.46352219329763    2.15253353456693   -0.80621990523829
H         4.21134394942175    1.67132807296679   -1.29820431082406
H         2.33512627174387    2.82415847008120    1.37782259846563
H         3.50238986395533    4.65599802735014    1.92174114055982
H         3.11603718248242    3.74498939795496    4.18288132501884
H         4.84131849510053    4.39776823460430    4.09457465288407
H         5.61138038032652    2.19316075021144    4.17030185304930
H         4.03501442905645    1.57418328998951    3.91680614884051
H         6.15694308627127    4.27334618296203    1.81276304175358
H         7.40387696626645    1.71644825685839    0.94283736257915
H         6.81476039785157    2.13564851962211   -0.68098539076726
H         6.51630943471202   -0.43367901933773    0.71986214062339
H         5.80017379563426    0.10463363042373   -0.87569116176922
H         3.40537219134828   -0.89321399750567    2.22304107670211
H         5.16528383611358   -1.26115934407902    2.30902637197481
H         3.39113633681266   -2.63954108183281    0.73656852407560
H         5.04379166944753   -2.32331983598866    0.09093534732750
