36
 energy: -47.842933483259 gnorm: 0.143859444728 xtb: 6.4.1 (79825abcba525fcdf90b791dcacef51065a7a4e7)
C         1.71570400538015   -0.05093789970571    0.51827585342140
C         3.08788827510528    0.22113538341527   -0.14053751909826
C         3.45691738646872    1.65661982568095   -0.46603037445142
C         4.11912667676333    1.78500407982006    0.97410373410092
N         3.31333458717535    2.38770422086621    2.02860087920124
C         3.95694233118238    3.70301032168524    2.31714211380672
C         4.06460497888828    3.81480443045636    3.87441034181318
N         4.96619669793698    2.84780794625620    4.51997664717593
C         5.32069347748700    3.57531278740803    1.67815752316302
C         5.38926355341705    2.47172910983450    0.94682136729716
C         6.41397552623574    1.61373894282847    0.34865653099320
C         5.77873153743362    0.22073661727904    0.11872507105343
C         4.39095702193022    0.28770145725645    0.92171916978974
C         4.26923533317670   -1.14970710483948    1.42906225292594
C         4.15474396565247   -1.84109979102055    0.06086640522810
O         3.46092363463486   -0.96404571814647   -0.86034098177680
H         1.54320331275080   -0.95088780602797    1.11845481491824
H         0.98968707753183   -0.07067690511528   -0.29583553014144
H         1.35009270607534    0.70464493107232    1.22910828085555
H         2.60376406620531    2.31891399100450   -0.64851986488274
H         4.24029349930055    1.71467762007155   -1.23523714559798
H         2.31480973655588    2.41408845051920    1.80613894360576
H         3.47629901596762    4.56382603078456    1.84505634658299
H         3.05527692652808    3.63067296497497    4.25976132700968
H         4.32923745707832    4.84581958523550    4.14696145314945
H         5.85933155880449    3.01443460655768    4.05380171157847
H         4.62461939658221    1.96487792504802    4.13363818201255
H         6.14939951527026    4.16556134716199    2.03368323301366
H         7.27410553281022    1.46566321917001    1.01241485604872
H         6.85118065876450    2.05156900442962   -0.55466827282236
H         6.43555702650538   -0.51763061703755    0.60137232253449
H         5.63155861275612   -0.00650240725822   -0.94187689429274
H         3.36916185437881   -1.33946461414147    2.02024085880882
H         5.14800024678782   -1.58639853351895    1.92332229946243
H         3.53090451897707   -2.72136414552703    0.26468717854850
H         5.09768175682418   -2.23366992066826   -0.32538225812949
