36
 energy: -47.843734652199 gnorm: 0.124681185115 xtb: 6.4.1 (79825abcba525fcdf90b791dcacef51065a7a4e7)
C         1.75042369621427   -0.01538704199531    0.45836649096551
C         3.15533043096294    0.14608283373609   -0.16702395565815
C         3.50836270476518    1.59885724962072   -0.42694402901130
C         4.22142409623876    1.66908590093544    0.99277479782455
N         3.49825364934035    2.25043747815771    2.11686010126754
C         3.99740806503809    3.62939907150602    2.39403702007535
C         3.92871120755872    3.96917196823958    3.92014604124210
N         4.78587356822900    3.09190520586506    4.73278460758183
C         5.35390361983233    3.51526691702186    1.73728820874737
C         5.44900560720312    2.42969001574766    0.98235109374764
C         6.48052407739575    1.73483988006359    0.20960523565833
C         5.94200442466542    0.29849695954809    0.00038137197226
C         4.54400704384317    0.19602862373963    0.78160201352130
C         4.26257395301827   -1.18781209054210    1.36823408494098
C         3.80338675580903   -1.98064140463282    0.13386749573656
O         3.32619089207908   -1.07952649228780   -0.89545733254268
H         1.52370385617914   -1.08199001840733    0.56246897630120
H         0.97329687543657    0.32936064139986   -0.22536628192884
H         1.64640132005689    0.38874831337680    1.47606671789512
H         2.73696160385838    2.32705468253210   -0.69984599544721
H         4.20205635403393    1.66624209245483   -1.27722419726249
H         2.47643923394547    2.27710562385572    2.06765123370912
H         3.28115376894761    4.30441250346484    1.91840756173582
H         2.86892849502808    3.94359490778058    4.19826353105584
H         4.38113532972401    4.96898105612224    3.97492681835317
H         5.75822835625405    3.38488305368945    4.83985256499950
H         4.79464643304571    2.17924399609826    4.27183944521048
H         6.19124186982516    4.17933586640200    1.87665395850167
H         7.45271616055902    1.80463114757268    0.71189697206158
H         6.59682333218930    2.15731983797484   -0.79380118645508
H         6.60559093199858   -0.44785531799897    0.46099569008178
H         5.85327237295659    0.08750860759073   -1.07003190398727
H         3.49028816253185   -1.19932444420861    2.14223314215731
H         5.17191386994270   -1.70920401204120    1.69758441359408
H         2.93808264747523   -2.61900208302596    0.35596738839311
H         4.61850922185989   -2.50934528615922   -0.36460879293225
