36
 energy: -47.845977481068 gnorm: 0.144214416617 xtb: 6.4.1 (79825abcba525fcdf90b791dcacef51065a7a4e7)
C         1.76425196010633    0.00602614175398    0.44823677201298
C         3.12095716141733    0.25598697802616   -0.25020378621947
C         3.32466017409835    1.75264876704262   -0.39598535673016
C         4.10699507196004    1.78887013910885    0.98807757847428
N         3.34324719814856    2.40294757241644    2.06701732509753
C         4.05176614244639    3.65051315207183    2.47823290518333
C         4.30703371166837    3.70844914841630    4.02117019725908
N         4.76065602833042    2.39662477125416    4.50907317085924
C         5.39810667091141    3.51954415049356    1.80396322399922
C         5.36244169160542    2.50185869675470    0.95514291581226
C         6.42854247351647    1.68621305448653    0.37022029008988
C         5.79674106657979    0.32726749499874   -0.01830633943503
C         4.42405346506376    0.30992445019694    0.81273519503593
C         4.24137950087466   -1.10449477655971    1.36446459367840
C         4.02911674420230   -1.80336086466992    0.01182910458203
O         3.51179775183857   -0.90459457255727   -1.00001761358897
H         1.78065999321363    0.27617674720973    1.50966531018072
H         1.47405198382277   -1.03722418361947    0.31526952114860
H         0.93989464223070    0.56099972368329   -0.02324930220503
H         2.36977998961696    2.28797294306168   -0.35805807328004
H         3.87318790865244    2.28793002286996   -1.18422342355072
H         2.32922868374706    2.53127280529871    2.01665390251095
H         3.51261185001879    4.53112013026123    2.11944227451676
H         3.31498683536346    3.90065285118236    4.44548570159055
H         5.03499286832473    4.44308247201852    4.39224441779576
H         5.75238436879369    2.34533390732378    4.27112875674851
H         4.23360092373208    1.58937607347847    4.16839686397045
H         6.17651524443132    4.26019502368829    1.88799941083570
H         7.25227639305134    1.56647215251918    1.08397779834464
H         6.86837350848774    2.06368928575510   -0.55870361639044
H         6.44739889671000   -0.52240406295953    0.23518319074652
H         5.52781611756909    0.15936704125515   -1.06600039477024
H         3.31844711667336   -1.21449082317871    1.94042385441148
H         5.16265172235143   -1.36240533942102    1.90479770242523
H         3.27316707356735   -2.57754484348662    0.19827795124547
H         4.93121987834512   -2.24767022889829   -0.41388224892799
