36
 energy: -47.851667452418 gnorm: 0.120434206771 xtb: 6.4.1 (79825abcba525fcdf90b791dcacef51065a7a4e7)
C         1.78400159781390    0.06719527092004    0.61344973743143
C         3.15536044763691    0.20939994469192   -0.08662267887662
C         3.42444373872196    1.63228118280448   -0.54021598202694
C         4.12482580307203    1.87817638941612    0.86619457072415
N         3.26738444956956    2.51825502702274    1.85594532345426
C         4.04361682377449    3.66675391763171    2.40905546958070
C         4.09111754671748    3.41358452481000    3.95269485142593
N         4.59717792114824    2.08150789969852    4.31900139065169
C         5.39896755169852    3.50217728109372    1.76070043136189
C         5.36680745345459    2.61011541520678    0.78057646902094
C         6.33930266001755    1.91058356792605   -0.06138046615966
C         5.86040736044202    0.44227218774905    0.04622993090155
C         4.50315930085460    0.40367157446023    0.90156015585507
C         4.35784367319780   -0.92820757878353    1.63867491236936
C         4.05427316673599   -1.79051418199818    0.40280908761045
O         3.50345940199809   -1.03831825537323   -0.70626217302192
H         1.08768514275359    0.76416519694019    0.13464138697644
H         1.83920287798264    0.31130699899860    1.67534890701385
H         1.46187362211722   -0.97069251605323    0.44350181495373
H         2.57715731625027    2.32483421511729   -0.58799293662469
H         4.09314155006083    1.79232304284114   -1.39809580751752
H         2.39956024727147    2.86997786125911    1.44313835826463
H         3.68838989032947    4.69085843635968    2.26795094734707
H         3.12683199308227    3.52210779972665    4.46212491421303
H         4.73662346617444    4.19550214594341    4.37605482974113
H         5.51528899231690    1.97288124125609    3.88535901645249
H         3.95717641125450    1.34381205457196    4.01617999604045
H         6.21151846260221    4.17896442679267    1.96870498610134
H         7.36024061031515    2.00401390829141    0.32756904185186
H         6.49976085387132    2.27944899590930   -1.07972753330311
H         6.60253512818390   -0.14563581250305    0.60584129223068
H         5.74912017334168   -0.05088933361355   -0.92463613294013
H         3.52636798062563   -0.97991535554947    2.34691702250618
H         5.18956871917679   -1.43628330237871    2.14593497619974
H         3.41080931350864   -2.61788327654260    0.72991544028868
H         4.96719817397753   -2.22770329997767   -0.00690378900320
