36
 energy: -47.844927571374 gnorm: 0.135341997546 xtb: 6.4.1 (79825abcba525fcdf90b791dcacef51065a7a4e7)
C         1.86427638891655   -0.04575204416438    0.44134813327769
C         3.27486554094782    0.07086707113772   -0.18121662048751
C         3.42928770034961    1.53596896112900   -0.54504895333680
C         4.06448244546633    1.82603671087550    0.88371921900583
N         3.33471408689326    2.56388854798990    1.90720626030300
C         4.03035967224639    3.82261961840086    2.30619319087646
C         4.30868597065642    3.77775543752638    3.84557465483449
N         4.46764223863248    2.39773467768879    4.33032338059180
C         5.28954125113265    3.68043530903383    1.48237846242082
C         5.31634340106206    2.54165293360475    0.80421330394461
C         6.27557430057476    1.75851456984933    0.02283401145908
C         5.88242912347238    0.27766314876162    0.24503877150136
C         4.45810328391469    0.35826090998901    0.97988705656080
C         4.20604093818242   -0.94366194700171    1.74134507680183
C         4.06541251400337   -1.88757636943839    0.53621384649269
O         3.69119491993360   -1.20697926150606   -0.68688972483292
H         1.75880164499710    0.84710815735933    1.06709317528982
H         1.69061600114897   -0.98949137489637    0.96044899768376
H         1.12464566580783    0.03294279092922   -0.36896865838426
H         2.42208785158639    1.96050804492400   -0.61661473587185
H         4.08574561220843    1.61975252128050   -1.42298476424837
H         2.31274971604636    2.55338114146432    1.95931990555262
H         3.46288155357351    4.75001628025263    2.19309698863174
H         3.43726639989953    4.21896828734712    4.34266828170942
H         5.23631145558366    4.29082020385734    4.13468058521981
H         5.38303084760687    2.03029277069467    4.06608194001626
H         3.77623381549287    1.79835741098243    3.87403490377974
H         6.13829376925825    4.33729997008947    1.58083507160555
H         7.30283728482494    2.02564104010499    0.29796935838881
H         6.28926367580261    1.95173124194833   -1.05481119829299
H         6.65760932052964   -0.17375624045685    0.88133313602730
H         5.75268625926670   -0.28835431063491   -0.68284325712338
H         3.29238104801322   -0.86330963146398    2.33666139083397
H         5.02973359992950   -1.21195292487547    2.41719313846409
H         3.35396400923576   -2.71537487652869    0.65527086703601
H         5.07610037075018   -2.21111325362376    0.27879400310587
