36
 energy: -47.844063350895 gnorm: 0.143572234962 xtb: 6.4.1 (79825abcba525fcdf90b791dcacef51065a7a4e7)
C         1.84159345822674    0.00017328309210    0.55898819366735
C         3.23121262813686    0.14378035898636   -0.10379700586559
C         3.41979422084784    1.57019350428766   -0.58600676047744
C         4.12056142565671    1.92545856305075    0.79663643633540
N         3.25388574707139    2.61568985555560    1.74371980512330
C         3.98237871774205    3.75448272845881    2.37614846939829
C         4.18040383665387    3.36219144480631    3.87816950569864
N         4.73306984985919    2.00531734599295    4.01292362253241
C         5.34056365819853    3.65027607895386    1.72124392952360
C         5.37415407038026    2.63924720414610    0.86442193795411
C         6.42465979941972    1.90102088186322    0.16054494967432
C         5.86399252455786    0.45831136781784    0.12737154548896
C         4.49382409735144    0.45861297835372    0.96274001697523
C         4.22433098908209   -0.84368715835933    1.71755434856857
C         3.84112768104647   -1.87320725778526    0.64222385594846
O         3.61379109374370   -1.15090804326184   -0.59302328494285
H         1.73115207375821   -1.06130236717254    0.80587534208595
H         1.08587032782880    0.28212210139587   -0.17562393260926
H         1.78206478712402    0.74202430879198    1.36890990622291
H         2.48827235877932    2.08039447170001   -0.85390343582043
H         4.16963459360966    1.65040197820131   -1.38602799245438
H         2.48717728283603    2.95447915663634    1.15667864916944
H         3.48361761390545    4.72707859568437    2.36268123785858
H         3.13699244141183    3.40470712776632    4.21077736908887
H         4.80418301928407    4.02964343404480    4.48867266096445
H         5.70721510957307    2.09619560029531    3.72042481250797
H         4.23144162184361    1.29737045729420    3.47192619865860
H         6.10764595109632    4.36717598825598    1.96452359546981
H         7.35763380108477    1.99169152852614    0.72945934599422
H         6.61661589217417    2.21579025570920   -0.87043146911553
H         6.60573064426591   -0.28864900266614    0.44585088488630
H         5.74481869183491    0.14921432117296   -0.91590725057751
H         3.40104004785359   -0.59489405916946    2.39277758485155
H         5.10190064827351   -1.15703381254674    2.29971035703641
H         2.94943870643259   -2.47518026271411    0.86154825516309
H         4.63474788961002   -2.60252521161585    0.46702874699679
