36
 energy: -47.838257673029 gnorm: 0.130846827721 xtb: 6.4.1 (79825abcba525fcdf90b791dcacef51065a7a4e7)
C         1.79270546315726    0.06878689671708    0.46624211764163
C         3.19795142303221    0.19422426429678   -0.16660689030615
C         3.40500676914433    1.66658096248044   -0.46998374543087
C         4.11126415385771    1.69327791749273    0.95461364041677
N         3.30282917298198    2.21795375576463    2.04807637963670
C         3.94363014449452    3.53310695471423    2.34348000649853
C         3.99698140478314    3.85714666468819    3.87361902726847
N         4.92696518768691    3.01704962860053    4.64438022297613
C         5.36534689298118    3.38253419361286    1.85309800019529
C         5.36943553589186    2.40218616633882    0.96071219355592
C         6.39547544381370    1.80176671099299    0.10588966699917
C         5.98251332380489    0.31005014538083    0.13909910375761
C         4.54260715856685    0.23718443970854    0.84377117947661
C         4.35178777958117   -1.17424806728340    1.40037051754410
C         3.86414240337922   -1.90812741242417    0.14072172075067
O         3.46562039775182   -1.00086671145654   -0.91629851598065
H         1.63220323037361   -0.82637357970890    1.07682205897355
H         1.24238704715130   -0.12285417845769   -0.45608694215359
H         1.36401371890105    0.91206661835581    1.02745729566543
H         2.47425160929908    2.22231221672574   -0.62703206611815
H         4.19112024844629    1.90870557341043   -1.19945559377852
H         2.29880571703000    2.29233754174548    1.86466079699090
H         3.36770940177030    4.32224886849745    1.85311585499317
H         3.00185322526883    3.84547729736820    4.33266872803338
H         4.42096672516837    4.87063619735054    3.89316707904917
H         5.85744359839689    3.02132289247817    4.22370807028295
H         4.58384421523500    2.08396166436590    4.88336292735576
H         6.20976728039792    3.96344259721226    2.18633251567481
H         7.40970596638883    1.96067497617287    0.49112956597397
H         6.32684979744889    2.34481292563281   -0.84238800160851
H         6.63064233184589   -0.31863833273613    0.76697954873728
H         6.07243794149902   -0.11954594564514   -0.86366444528394
H         3.51773380514898   -1.26625248328121    2.10145645126263
H         5.22854850132807   -1.73903555133038    1.74609570785411
H         2.97771099070123   -2.49055092516514    0.42463385366677
H         4.62081690732769   -2.55614483032598   -0.30643388693749
