36
 energy: -47.844072771837 gnorm: 0.133754578343 xtb: 6.4.1 (79825abcba525fcdf90b791dcacef51065a7a4e7)
C         1.69080535959934   -0.02953260493798    0.28378312503763
C         3.13906356510701    0.18482647193089   -0.21375783783672
C         3.46113693517956    1.65634107365489   -0.39721692940455
C         4.14160312531254    1.63539808352958    1.03997383055865
N         3.41052037827915    2.15043121560627    2.19096112773062
C         3.90912322997172    3.54577144550063    2.36967335809232
C         4.02616828091652    4.00568420104361    3.86096618813425
N         5.03312018781289    3.23862478146646    4.61088179530866
C         5.27064607237660    3.54785466402529    1.71341387313664
C         5.37287956206506    2.38914473210881    1.07749624822577
C         6.42426089856227    1.62948073616987    0.39816488935080
C         5.77316715493461    0.26972039129366    0.04604594684357
C         4.41162038980989    0.14476697864078    0.88615256660547
C         4.27036439314504   -1.28167613181725    1.41875341014858
C         3.97420645952759   -1.91042915125165    0.04760346170719
O         3.57079969682118   -0.95857778211177   -0.96751994443810
H         1.54106763260946   -1.03368956482164    0.69503552190540
H         1.06753208603865    0.24958276669410   -0.56703565604445
H         1.43666554056263    0.70193004182897    1.06495860908573
H         2.56439466014975    2.28454935295045   -0.42906459355350
H         4.27005690461115    1.86398476170175   -1.11224177489586
H         2.39173385233737    2.24264297664173    2.16252884908560
H         3.25719599963414    4.29102722202244    1.90656275712920
H         3.07505961359021    3.85628020670100    4.38462033434958
H         4.26856491920916    5.07194803493155    3.75311428693043
H         5.95734215245399    3.39209830815210    4.20463921408849
H         4.85080042023975    2.23253834059903    4.60399232834210
H         5.89685691837507    4.40824139783158    1.88411935710209
H         7.20078122685024    1.46343565880103    1.15431993176289
H         6.95575766003243    2.09501885521277   -0.43827084221873
H         6.49891248504846   -0.55055120962646    0.14605861965016
H         5.67205021556205    0.22065252802645   -1.04277990691191
H         3.45790176627544   -1.46353731657968    2.12759993638442
H         5.15392032587440   -1.82250582449793    1.78488509854300
H         3.20706092146874   -2.68927772942482    0.14990951970842
H         4.89826073088931   -2.38225637596443   -0.29288707678807
