36
 energy: -47.837243525603 gnorm: 0.151855474125 xtb: 6.4.1 (79825abcba525fcdf90b791dcacef51065a7a4e7)
C         1.80714208119232   -0.05270630255130    0.50555958885353
C         3.20102361221498    0.10482979347671   -0.14499810746128
C         3.37297372783229    1.57892651453556   -0.46156681360505
C         4.12077346485420    1.83979377691324    0.91746689148320
N         3.32308875702384    2.59912991013158    1.87225516618999
C         4.03214900497241    3.85843238052695    2.24495892229735
C         4.14140816564490    3.69792928779192    3.79785131678175
N         4.72383904987102    2.37415677788464    4.06823312008541
C         5.36121297680416    3.65892121384376    1.55343193635301
C         5.36368462136811    2.56617059572372    0.80287107778871
C         6.39890479610477    1.73949095867115    0.17925006227835
C         5.90858853010242    0.27609131692817    0.30135849093849
C         4.44659907488547    0.35295065364911    0.95853546567573
C         4.20553353035754   -0.97191442763780    1.68308829023330
C         3.96910680042804   -1.92464851064240    0.50008691951491
O         3.67837907298577   -1.13853523877894   -0.68174931714795
H         1.75030996409918    0.33680214654948    1.52777991803976
H         1.59181196866320   -1.12209461256482    0.48797696246055
H         1.07034727037202    0.48253507352963   -0.11129522834881
H         2.51555378392106    2.25165737531947   -0.57143426077043
H         4.08264158770880    1.76655801139195   -1.28003727959366
H         2.35927067243944    2.82821171705486    1.61571350482284
H         3.50994160131021    4.77918474740135    1.97219302764680
H         3.09250561489615    3.55453446473392    4.08137252902317
H         4.65555795949889    4.46104591349249    4.39835921548371
H         5.65116587530750    2.41099809504356    3.64222716491434
H         4.16469368332911    1.56318363827046    3.79404903091628
H         6.23488440418723    4.24033932517026    1.79878257141535
H         7.38760987511026    1.97307944188998    0.59183209761688
H         6.36388200097220    2.05225614008456   -0.86945895895153
H         6.44133798019682   -0.21922402518007    1.12621911442830
H         5.88681125144664   -0.42509804600234   -0.53889936714221
H         3.31036993894624   -0.80753485485279    2.28913606250615
H         5.06895049892982   -1.29593324041027    2.28036812598434
H         3.13319755009460   -2.62869417757590    0.60572470645889
H         4.91652012705878   -2.40726606292686    0.25125098299333
