36
 energy: -47.842404611949 gnorm: 0.139353840022 xtb: 6.4.1 (79825abcba525fcdf90b791dcacef51065a7a4e7)
C         1.73565416187525   -0.07237474221242    0.34278819653415
C         3.17909351790436    0.08523145251709   -0.18880543037666
C         3.32873416748586    1.57050360787647   -0.46141879056523
C         4.02633260377383    1.85956418606125    0.93814919948911
N         3.25704030454922    2.52079577324831    1.98479865338244
C         4.04605152899498    3.70823976554927    2.42633608816947
C         4.29936544967457    3.61701209176885    3.96798558977472
N         5.06535875385471    2.39719142213767    4.26798144287435
C         5.27386478506078    3.65434858858415    1.54656584389519
C         5.24495372172116    2.60717630997556    0.73413368933517
C         6.27128146531917    1.87099935165501   -0.00659437724859
C         5.83734750831180    0.41494480403704    0.29083712255547
C         4.37722315350142    0.37796918746937    0.95557149602987
C         4.22774077556684   -0.97327675782504    1.65567599863025
C         4.09039861076360   -1.90229888654789    0.43865212804269
O         3.62322408907120   -1.17184400319465   -0.72213088999525
H         1.65521379869122   -0.82415811031929    1.13539922385383
H         1.14209414092000   -0.31355407745581   -0.54026706506876
H         1.35740985113954    0.86788909226512    0.77021650092314
H         2.40577739062912    2.10492475437632   -0.71112154353367
H         4.03533112814577    1.79283519442264   -1.27383331659655
H         2.24369401300303    2.65488077974719    1.93593230773249
H         3.43766647378623    4.58530397225069    2.19072468795368
H         3.33737662562093    3.59094065303764    4.49242882187899
H         4.86727569143710    4.50591755247129    4.27560836471006
H         5.81677996660189    2.41050748878767    3.57663330946123
H         4.46145167424443    1.59860118823482    4.06050188576730
H         6.09508796067506    4.31589184687700    1.76904896233941
H         7.22881178422424    2.29142982992436    0.32310116661124
H         6.32888150885200    1.96019362418129   -1.09634935079949
H         6.58168696579305   -0.08809632764935    0.92523661589820
H         5.80121080733286   -0.13905353055643   -0.65253662062950
H         3.33840717680489   -1.07726521129335    2.28329417060177
H         5.02257073368998   -1.23819996319773    2.36650741337377
H         3.46973488614551   -2.72984778653595    0.80678699200546
H         4.99112814814167   -2.42929570555627    0.11710633696065
