36
 energy: -47.847015069211 gnorm: 0.139746531624 xtb: 6.4.1 (79825abcba525fcdf90b791dcacef51065a7a4e7)
C         1.82318886871379   -0.09359790471855    0.54182538693076
C         3.12927593221898    0.19237130181685   -0.23490291007611
C         3.40141498183075    1.68499406184707   -0.26249559007057
C         4.19417915895297    1.60201176322839    1.11359634330264
N         3.49809652876731    2.22084822944684    2.23476683675025
C         4.04095948157942    3.60549934075974    2.35949992201457
C         4.06789138330125    4.17222609247735    3.81801596918992
N         4.65831922135020    3.25969046784739    4.80967085782891
C         5.41654321936774    3.43935229185532    1.75568716943402
C         5.43398586984405    2.33665826572148    1.02001520450401
C         6.39704164062596    1.66019047152018    0.14886763530540
C         5.86529504900836    0.20637060396360    0.12623235174845
C         4.42719735585479    0.12356755275516    0.83349521682078
C         4.28878065668267   -1.33851200205353    1.25954809020365
C         3.87079220146505   -1.91636614392960   -0.10223835051428
O         3.45949211086355   -0.92442842445272   -1.07492811236558
H         1.56535437733999   -1.14637624959145    0.70012969031864
H         1.10304284429298    0.40712555563416   -0.10696832591572
H         1.79098449124919    0.35635659586856    1.54500214802044
H         2.56268513540867    2.38939510420201   -0.27506699428003
H         4.12631694397510    1.82877208123288   -1.07648144558945
H         2.47812040025824    2.19749710813018    2.15513762973309
H         3.52839369501371    4.36409323001041    1.76225764143249
H         3.04164842721273    4.41412629880588    4.11710224838784
H         4.64436090179858    5.10743342763244    3.79860302035727
H         5.56544380616451    3.01540949556086    4.40938946664938
H         4.05546399607406    2.44076767288603    4.70276472578003
H         6.17006158835882    4.20682964863752    1.82449328163091
H         7.44847553989149    1.66985247262007    0.45986384913438
H         6.37784103030418    2.02239479266098   -0.88422414891273
H         6.52217497393918   -0.40998986696078    0.75723381315551
H         5.80503697976119   -0.24464014392892   -0.86932392445039
H         3.59955483749422   -1.46311804659722    2.09923464440066
H         5.24907436056813   -1.80438096023547    1.52035906285349
H         3.12039788056389   -2.71706224288799   -0.06511644766116
H         4.84264550119206   -2.32125089065891   -0.39206681565902
