36
 energy: -47.838850175565 gnorm: 0.126739649315 xtb: 6.4.1 (79825abcba525fcdf90b791dcacef51065a7a4e7)
C         2.02453552345605   -0.33839191685004    1.08506001319412
C         3.19860986184927   -0.07364085576122    0.11428459758635
C         3.15913764301083    1.41199491394266   -0.19242692643292
C         4.19940395586627    1.63613431669076    0.98935031449825
N         3.71105942434526    2.01736264766232    2.30870514517345
C         4.17246864467108    3.42605012816722    2.48253903215724
C         4.46612814235750    3.93272485528168    3.93382064170338
N         3.32704668120052    3.67523165735769    4.82874877335501
C         5.29436365223048    3.54174584917259    1.47636248531834
C         5.24216284038017    2.55371495415716    0.59402389270213
C         5.97503297509882    2.00234218968856   -0.54741045720688
C         5.88993371072985    0.47645605099074   -0.29984533354361
C         4.72005906214857    0.22233451944394    0.76880683650548
C         4.93305887891189   -1.21342126518709    1.25004790704937
C         4.42530428047726   -1.99440134946489    0.02720394099943
O         3.53429236276122   -1.16408626839724   -0.75759423127439
H         1.10567582853154    0.01376621260102    0.60385047475106
H         2.00884810170908    0.26508619420729    1.99381499651036
H         1.92630202069536   -1.39256181199118    1.38328104123680
H         2.22655015921081    1.92287804598372    0.07041442945941
H         3.49087846145488    1.77308975486203   -1.17644239217276
H         2.69867315097874    1.95189053236447    2.44296144046133
H         3.39257771096680    4.14590584494302    2.22088174733244
H         4.55489785363412    5.00997153394329    3.75270623816359
H         5.36677533705947    3.49370800911784    4.38482567617395
H         3.28103440665745    2.70489417132398    5.14355256394143
H         2.54854929894508    3.82624382963292    4.18327605161930
H         6.05413626840233    4.30334205072714    1.54164944921036
H         7.03769771189905    2.27181414194163   -0.56871038162108
H         5.47053066971510    2.21668121073337   -1.49523713152431
H         6.86098085357836    0.22711245862114    0.15231557033645
H         5.70453565167707    0.00118537319053   -1.26830767930785
H         4.28259830501036   -1.33852646155748    2.12003759950713
H         5.96380263335247   -1.45794803556663    1.54158545368992
H         3.91382844366686   -2.93858684571237    0.25631113774691
H         5.29040633897244   -2.19705090723527   -0.60758941160717
