36
 energy: -47.843611329680 gnorm: 0.122382826027 xtb: 6.4.1 (79825abcba525fcdf90b791dcacef51065a7a4e7)
C         1.74872594077075    0.12687051188127    0.44664400501026
C         3.19744040583306    0.05225043896223   -0.08871279656108
C         3.51684244081481    1.43811535865941   -0.61796178488716
C         4.05112240054583    1.84872385877042    0.82250192946665
N         3.15223103002712    2.55286638300615    1.72842162429151
C         3.87339991979307    3.75186573655838    2.24787635302273
C         4.26950563291536    3.54460762171646    3.74764898040697
N         4.91259242140719    2.22797960964120    3.88044873356480
C         5.19155507605631    3.72823090133034    1.50873246334181
C         5.28763978307446    2.59476593730738    0.82794136281444
C         6.35927978412326    1.79981885040182    0.22492392165638
C         5.85069431869213    0.33829682096667    0.27132650016450
C         4.42704338181234    0.38519002126594    1.01039424817415
C         4.23983105972177   -0.85358945751269    1.88716891437508
C         4.06148521445273   -1.89187794457612    0.76768606647198
O         3.59728643027492   -1.27625820651198   -0.45900273110244
H         1.30518589313067   -0.85712937906897    0.63345290213258
H         1.10396851644702    0.67443233091010   -0.24236360257202
H         1.59428344126645    0.84050477724748    1.26928210329344
H         2.70413152531936    2.04072568506602   -1.03768596944659
H         4.39063070990831    1.56161706081141   -1.27368225921150
H         2.31529298566656    2.82510272554730    1.20625357630528
H         3.29569491692005    4.67481445809173    2.15139158170214
H         3.35820121403929    3.49818830465435    4.35470121805120
H         4.86882823955752    4.32463217608349    4.23722107810843
H         5.88129178668546    2.23864685149179    3.55752281604413
H         4.44649405177710    1.57456569075283    3.24696594068266
H         5.93861337433992    4.48505869985491    1.68383613816837
H         7.22160812091530    1.98838860234600    0.87542874711571
H         6.63983765550149    2.18596773950437   -0.76047731280240
H         6.51457106735022   -0.38094454037407    0.77283806410504
H         5.76011469289268   -0.14125075400137   -0.70847117804915
H         3.31082130694941   -0.80337635559968    2.46167037503563
H         5.04539021649449   -1.11831372547329    2.58589329866435
H         3.42715281351965   -2.76019960731264    0.98955046797960
H         5.09123309116256   -2.24953065164022    0.70338298941512
