36
 energy: -47.846140878048 gnorm: 0.130462006449 xtb: 6.4.1 (79825abcba525fcdf90b791dcacef51065a7a4e7)
C         1.74020599072687   -0.10512970668872    0.41150274028056
C         3.12419499428101    0.19382536118919   -0.20990606625843
C         3.36512482865340    1.65039343443370   -0.56077061248029
C         4.05197267073230    1.80970387716464    0.86465919143360
N         3.25515738605642    2.39623476808198    1.93497667245349
C         3.97542235247495    3.64184637897938    2.33144507964044
C         4.15851425865528    3.76011875823874    3.88117489295485
N         5.01199527773203    2.77563935239215    4.56460457339604
C         5.33760789801923    3.54785426263562    1.68333924178562
C         5.33254528767871    2.47622653826525    0.90292925118249
C         6.41523484216602    1.70863951535492    0.28440162731232
C         5.85617933431643    0.26565439264931    0.23846962002311
C         4.39076599686856    0.32540625192992    0.88977244306331
C         4.16577859503135   -1.04766571569718    1.52413086895259
C         4.01635333207908   -1.85259363149910    0.22303320074376
O         3.55598204501550   -1.01030582364252   -0.86225158919274
H         1.46464017594434   -1.16259000645772    0.48714864924435
H         1.01953748086731    0.36629175681680   -0.25832280084737
H         1.63663106864154    0.41622988813289    1.37447531785912
H         2.54626782659326    2.34168244338809   -0.78748469550750
H         4.14725310172545    1.67978920283603   -1.33287109315759
H         2.30176895336895    2.62794980253782    1.64412282499537
H         3.41109289214322    4.54548853882223    2.08680297768269
H         3.17054464861367    3.64782394201210    4.34209659754005
H         4.51799658130348    4.76253426636996    4.15180806322949
H         5.94569975657448    2.74026188161401    4.15263640352500
H         4.69165628482104    1.80501772619937    4.59243387747563
H         6.18563042308173    4.17193219655176    1.91340470239563
H         7.37968228368131    1.84285065024567    0.78853817827730
H         6.58015117806877    1.97753315656491   -0.76409158047959
H         6.54525675834726   -0.48080627609522    0.65980443552258
H         5.74235518477528   -0.12828332714128   -0.77643486354306
H         3.25768479736458   -1.09406605073649    2.13145697004858
H         5.04565845497802   -1.37163712740662    2.09690842894033
H         3.49081655907124   -2.80163654090815    0.39248098441942
H         5.02412450697424   -2.24921048308965    0.08330721191973
