36
 energy: -47.853814275442 gnorm: 0.130330707416 xtb: 6.4.1 (79825abcba525fcdf90b791dcacef51065a7a4e7)
C         1.70734154319396    0.05340661719598    0.35278736360501
C         3.12228239985049    0.22830500254950   -0.24579561600635
C         3.36450817305745    1.72370973906007   -0.33431158834256
C         4.10745489745770    1.66724877600926    1.07061989654469
N         3.39622800670002    2.21402700524993    2.21940307391150
C         4.00013128112438    3.55958373263165    2.44808443212471
C         4.08987916298775    3.87016457030230    3.97931219544839
N         5.00985074120873    2.96956668608303    4.69154913909322
C         5.37767430366911    3.46526468694777    1.83334509849368
C         5.36476391586388    2.37769567635211    1.07540143788172
C         6.47530028005901    1.66320792335479    0.44278825339264
C         5.80425598274578    0.34608659553866   -0.01737473270944
C         4.43467015108747    0.20374198771791    0.80674587187531
C         4.26852410167556   -1.26061617755027    1.21467668383356
C         3.93638460737553   -1.92459921289042   -0.13139239610945
O         3.38493391869747   -0.93929221466058   -1.03930529846847
H         1.58917858561716   -1.01893989855560    0.54250185075069
H         1.00756124830330    0.45485199731504   -0.38166257248557
H         1.48916523954261    0.66351281405546    1.24162329816689
H         2.52473421418028    2.42658895185282   -0.35770270783305
H         4.02525334112689    1.98769910969173   -1.17243651654592
H         2.38662223444621    2.26230850194769    2.05939533863217
H         3.35675457375934    4.32368537979508    2.00412294146801
H         3.12835116478816    3.91351706334655    4.50345663177248
H         4.50237756452308    4.87791235647216    4.12626864424369
H         5.89312700161138    3.04604212201072    4.18484611596865
H         4.72142227086516    1.99534597452380    4.57665391746320
H         6.10950574112179    4.23976294857043    1.99496474542942
H         7.25307841049834    1.42476918323908    1.17799801169834
H         7.06082987007773    2.22908103430172   -0.28918306202277
H         6.44648151063073   -0.53895023348447    0.10014338336521
H         5.68850755916244    0.42749436686364   -1.10280050801721
H         3.50387201984567   -1.40152051928807    1.98349758232084
H         5.18865529769349   -1.67947779769221    1.64494844173197
H         3.24703237442146   -2.77493882517750   -0.04595257699720
H         4.80948953594984   -2.34235501109197   -0.63696031106230
