36
 energy: -47.842236534149 gnorm: 0.145385813419 xtb: 6.4.1 (79825abcba525fcdf90b791dcacef51065a7a4e7)
C         1.77620494422644   -0.23161471241361    0.51799863971560
C         3.09521406461901    0.13044709798980   -0.20316351755076
C         3.33590556902062    1.59922421233831   -0.49897618234493
C         4.07383465668984    1.83648748435299    0.88960473874871
N         3.37372886788572    2.53653884401989    1.95932100162846
C         4.03785098256768    3.81562962575867    2.34711713395855
C         4.22293672132426    3.74038560946614    3.89929470379772
N         4.59362486698650    2.38192577015818    4.32577199561350
C         5.39062244759051    3.61535338318837    1.70343700275658
C         5.34200636706800    2.52459082190869    0.95155592850153
C         6.45647897796127    1.80518734445664    0.33156184909558
C         5.84281956523594    0.40278054350966    0.10018270505395
C         4.41051352128240    0.35302947370981    0.82214277192513
C         4.33660109783082   -0.99394822036682    1.54224339762866
C         4.01157478676665   -1.87896069465460    0.32807582726024
O         3.53035596442454   -1.10259701636782   -0.79661144691833
H         1.54335368945151   -1.30138352989664    0.55344009580869
H         1.00293516973775    0.10320289347640   -0.17497942054122
H         1.65870013073305    0.28127125995320    1.48391809379052
H         2.44079789398497    2.21522825342593   -0.63727986306151
H         4.13173981439119    1.77779028501163   -1.23619390285573
H         2.43476278346281    2.70877233197617    1.59065352653746
H         3.49294187309588    4.73427950636171    2.11464522005660
H         3.30050833411007    4.04548121067258    4.40642926488006
H         4.99961036911958    4.49198300869906    4.09724955478518
H         5.44409688480178    2.18789780133598    3.79490111481245
H         3.92930677201226    1.73941372649089    3.88832756362817
H         6.21831102911250    4.27394664700761    1.91015480384798
H         7.36239933284942    1.83129065738774    0.94877508862283
H         6.77846691997023    2.16145987972020   -0.65242642722071
H         6.51132491082519   -0.36053969906413    0.52444339460756
H         5.79949892775504    0.14827678613512   -0.96354902774980
H         3.49382548538152   -0.96556445706801    2.23834399020079
H         5.27757670668375   -1.18967520591152    2.07466813862389
H         3.29337439737971   -2.63751670475557    0.66625461999314
H         4.93414595726803   -2.38581091598345    0.03756537175723
