36
 energy: -47.843595559585 gnorm: 0.123397476339 xtb: 6.4.1 (79825abcba525fcdf90b791dcacef51065a7a4e7)
C         1.67120374150689   -0.05825419780191    0.41520873885399
C         3.08900913399674    0.17369829471808   -0.15660811004117
C         3.46185991095601    1.63065453083540   -0.35910377618679
C         4.17162128387896    1.63112502546870    1.06400145646668
N         3.45666253116016    2.16899008812312    2.21467419800480
C         3.96167059464641    3.56583938430805    2.36060575060438
C         3.90393959027202    3.99046994013761    3.86577335743870
N         4.96851978479695    3.30195822620536    4.61231626608678
C         5.34177631203969    3.46409230555247    1.75283860498197
C         5.42113725591754    2.35448842427206    1.03177519895459
C         6.46695438013546    1.61179878903997    0.32561545307060
C         5.84153588498883    0.25042355200462   -0.06472804988397
C         4.48305106396647    0.16690077627189    0.78541595988785
C         4.26947406441481   -1.22471409536862    1.38219857649826
C         3.99670065081461   -1.91492697457501    0.03598431026479
O         3.56681916741828   -0.93220254459520   -0.93802193022356
H         1.50929778263684   -1.07179641475874    0.79783093197705
H         0.90303647163377    0.13341700506978   -0.33542349254373
H         1.55373744611081    0.64320235062840    1.25426782959105
H         2.72930490220609    2.44017415469842   -0.44769107541393
H         4.23129186643743    1.79915735256717   -1.12611692487965
H         2.44356117615066    2.20774362332817    2.07552991344775
H         3.36874471579789    4.23225563956076    1.72877117198687
H         2.93205561693007    3.71097091760424    4.28822422240894
H         4.02381218292204    5.08203605079821    3.82808124320662
H         5.84520886539740    3.37087990478355    4.09324069180069
H         4.68943015669980    2.32493663038357    4.72649010280702
H         6.09426094242530    4.19834073853603    1.98988651091327
H         7.33715692545665    1.56308050527413    0.99097191664099
H         6.65926964366009    2.14836968606435   -0.60923518382847
H         6.47230275117253   -0.53998494131614    0.36763966227431
H         5.79129301732432    0.14887096093190   -1.15345973971835
H         3.39148680815847   -1.16394319286734    2.03110350924008
H         5.12590393268804   -1.65290908715275    1.92108363329164
H         3.16037188647946   -2.60224099360646    0.21966211443926
H         4.79570319652396   -2.49504922309280   -0.43036762326598
