36
 energy: -47.843937790040 gnorm: 0.136879668755 xtb: 6.4.1 (79825abcba525fcdf90b791dcacef51065a7a4e7)
C         1.77500882038088    0.20842306697389    0.51325501349563
C         3.17155053324321    0.11195823032234   -0.14349032218041
C         3.62929307351252    1.43414758180662   -0.73088355363439
C         4.12349644434873    1.86813759409206    0.71701348628403
N         3.17783331502352    2.49386374044564    1.63281964789964
C         3.92594216985548    3.60399504809410    2.29271271876392
C         4.04932285105414    3.46408432355045    3.84653890133832
N         4.95007462649035    2.40467608085453    4.32716987809509
C         5.31507809069848    3.55624137921746    1.69904083914980
C         5.36279027356045    2.60734634715366    0.77450128085786
C         6.41804398596671    1.84466546232647    0.10462018931279
C         5.86998494226813    0.40028309140358    0.20586178353588
C         4.43727942764948    0.39325563708519    0.92870866585445
C         4.22572601261986   -0.86710203108807    1.76841132927594
C         3.95823517319635   -1.89198929816913    0.65434364274521
O         3.49782641886449   -1.22675354620247   -0.54762089531392
H         1.80807916045371    0.47950262484705    1.57405817500769
H         1.40791795000833   -0.81868163566522    0.48942676342624
H         1.05492236298270    0.89360708181889    0.04223680802301
H         2.74814781565417    2.04394102107072   -0.95791134971648
H         4.30400714656027    1.49845536086217   -1.59653555791960
H         2.21519139356515    2.65332224801236    1.32438664412672
H         3.41930977215871    4.55451180782190    2.10635760419340
H         3.04104122266250    3.36642555633108    4.26483765049718
H         4.51043063404816    4.37799458102029    4.24585629941780
H         5.92122121575946    2.63938205768587    4.11607557162041
H         4.56406459477728    1.58066184653934    3.86080662291276
H         5.98505482199590    4.37341774181280    1.91093631861776
H         7.43406181986797    1.89738335451114    0.51358698155162
H         6.46298205814933    2.11662202162966   -0.95503044838137
H         6.52940167038950   -0.16056119926577    0.88422567848936
H         5.86939010709015   -0.09970959011838   -0.76788407577706
H         3.31724791135239   -0.79488811182260    2.37263404892617
H         5.09925770417522   -1.19003830995526    2.35139914862689
H         3.25274288958299   -2.65843946972578    1.00135760239264
H         4.88373546219192   -2.37133069835619    0.32859516140947
