36
 energy: -47.843927541843 gnorm: 0.152375915263 xtb: 6.4.1 (79825abcba525fcdf90b791dcacef51065a7a4e7)
C         1.73935790577773   -0.12982186817356    0.37022865154639
C         3.12566461419280    0.21070253491210   -0.22403181294022
C         3.34381615649254    1.70298167912907   -0.39212878892133
C         4.09279051492641    1.76007959816721    1.00957282395495
N         3.36399874369420    2.27448703361320    2.16229154492934
C         3.91709094798278    3.63838684968455    2.41004856868114
C         4.12749533024379    3.77809244266427    3.95451803826505
N         5.25337194031098    2.97445723713203    4.45579444024099
C         5.27311064404028    3.58320130517337    1.74477383920362
C         5.36007584402737    2.45066190290138    1.06122193473485
C         6.37355791574511    1.75193451669393    0.26836800026785
C         5.76796655792313    0.32711363286789    0.27025666422395
C         4.32059661519019    0.25536795222213    0.95958596673072
C         4.20594132143562   -1.21766986226794    1.35375681940770
C         4.01065540183482   -1.87986557039126   -0.01972501091429
O         3.56147342972064   -0.91453917129015   -1.00238165628715
H         0.96268063375867   -0.01713069945250   -0.39394033328347
H         1.53890270432946    0.52080350020206    1.22273783415259
H         1.68470871482981   -1.18480438676690    0.67663547430105
H         2.52615628256592    2.39332186478878   -0.62594368371877
H         4.18188514343889    1.74760012557300   -1.10232419924389
H         2.34532377346971    2.25796905015648    2.06603221430956
H         3.27460979404406    4.47515412868281    2.12382275440480
H         3.20927098915626    3.45156908204978    4.45590558444817
H         4.30664787127754    4.81856731253900    4.25885854264291
H         5.97674412254579    3.32919852345355    3.82836739030588
H         5.07654648809502    2.00386529078361    4.18712750582360
H         6.07854089060432    4.26878885507307    1.95164954703281
H         7.40266736983706    1.67345228538758    0.63863753754240
H         6.34397272547622    2.15748045395723   -0.74824229211837
H         6.42560762879581   -0.32175360242855    0.86694238199817
H         5.76741666380190   -0.01146701722646   -0.77067410751255
H         3.33029546987400   -1.41493517036404    1.97822711904778
H         5.05197231365391   -1.65942862254017    1.89809221797772
H         3.26706173991401   -2.68503602544680    0.04625167795658
H         4.92119419658955   -2.38925842453373   -0.34201224987710
