36
 energy: -47.837756907501 gnorm: 0.135698691995 xtb: 6.4.1 (79825abcba525fcdf90b791dcacef51065a7a4e7)
C         1.99449406282258   -0.33664211163570    0.78738887702743
C         3.20283164216908    0.02685785115983   -0.10633176064956
C         3.28562573822627    1.51783275495164   -0.37629947331417
C         4.14388797894535    1.66914293541376    0.95391900129620
N         3.38582502607786    2.00377520960726    2.15303304412116
C         3.93424715985204    3.33523895923029    2.54540360324850
C         4.38297682401152    3.24900282488655    4.04219304318428
N         3.74077288441185    4.23269714580065    4.92798382608899
C         5.20050399264461    3.45629449459105    1.72909207564408
C         5.32767345340523    2.48746911060734    0.83318087002330
C         6.35906637699352    1.96448305478977   -0.06498246595500
C         5.85365281122140    0.52945220584188   -0.35151786962219
C         4.66468768765905    0.26235868711771    0.69262048493129
C         4.81095137079763   -1.16523179114912    1.22077664230889
C         4.29035275905949   -1.94908309440165    0.00519192866162
O         3.50338427544360   -1.13331798382464   -0.89727214845940
H         2.30938285142404   -1.09635612637676    1.51096385711834
H         1.19172860293888   -0.63823392190018    0.11294278568799
H         1.51652975912220    0.54372247464636    1.24166640588043
H         2.37110282073637    2.10173626743908   -0.52633634395707
H         3.82355745973487    1.72561371347671   -1.31234670532655
H         2.39122532472135    2.09460804932189    1.92996760405637
H         3.18654988093642    4.10308655509340    2.33035575600816
H         5.45205183286039    3.39274146914429    4.23599901443873
H         4.22612369612471    2.25484799919703    4.48305585412273
H         2.89454413887501    3.86295988642641    5.36383319332733
H         3.51311180864699    5.05868772949145    4.36994450680173
H         5.95085300855651    4.22185408280111    1.84062944822964
H         7.33442421512427    1.97407927151175    0.43592693273419
H         6.50014431743596    2.57989595245541   -0.95952326253271
H         6.67647875402575   -0.19968527506622   -0.32201750405897
H         5.50210378691159    0.50900849073060   -1.38793927273377
H         4.24044811010384   -1.43334558830561    2.11423808543596
H         5.85433384207134   -1.45014107263820    1.41416717682425
H         3.68537280452996   -2.78507932557347    0.38028316643885
H         5.12138124391820   -2.43381910988705   -0.51138686785791
