36
 energy: -47.839799437459 gnorm: 0.145965296612 xtb: 6.4.1 (79825abcba525fcdf90b791dcacef51065a7a4e7)
C         1.70401255587649   -0.00127810076211    0.28397443782662
C         3.18984940443437    0.09080006522070   -0.13406760114359
C         3.43277299847403    1.57342438935799   -0.34750841867652
C         4.14168641460445    1.76469256721844    1.06311144394781
N         3.34274715531890    2.50303481850174    2.03319376331307
C         4.02903808914305    3.80717040258032    2.26931317285817
C         4.08683244123828    3.89603431861794    3.83070249730239
N         4.74710653035179    2.70818398306208    4.39440048711581
C         5.34890191104962    3.64932230995023    1.54996012974909
C         5.40405125079134    2.45961580397078    0.96771566391248
C         6.40387466305933    1.71241605438676    0.20219041827967
C         5.91277670820888    0.24658576382499    0.28599600020361
C         4.45588814763471    0.27849227480221    0.95805239786478
C         4.29934595418693   -1.10877721909082    1.58201936505046
C         4.08324728244400   -1.96724862804606    0.32526947622903
O         3.57160214998491   -1.14694978281227   -0.75387956130613
H         1.41739626236316    0.67190273916125    1.09917980067133
H         1.38573903051514   -0.98999892333950    0.61774182169876
H         1.01804453991412    0.22351320052230   -0.54595118895973
H         2.59851604051851    2.25132487615553   -0.55791966616306
H         4.11071426518704    1.75266808795247   -1.19426416636096
H         2.33317693832430    2.58099493955101    1.88511404549850
H         3.39685168750544    4.60748765432919    1.87596933181440
H         3.06613277508038    3.98078281435908    4.22074454928823
H         4.73571648696191    4.71235075643201    4.17694475350522
H         5.65537469141961    2.64917216610263    3.93143185856507
H         4.17510440519608    1.93452928251283    4.04832266167785
H         6.13796209860345    4.38309369871815    1.57252770881136
H         7.43723134583925    1.69038850260489    0.56826965652598
H         6.41329796342990    1.98399097139609   -0.85846859694923
H         6.47108331827090   -0.59029620182931    0.73037942751310
H         5.65982493923931   -0.10745646083059   -0.71841603415026
H         3.43089736016069   -1.15431134992397    2.24485878061630
H         5.22205824662781   -1.32942940680546    2.13621688379596
H         3.36111744476285   -2.77440477930135    0.50585564088674
H         4.94793279705228   -2.51134697988031   -0.06035597032520
