36
 energy: -47.838017243893 gnorm: 0.141152483617 xtb: 6.4.1 (79825abcba525fcdf90b791dcacef51065a7a4e7)
C         1.76611884554622    0.04505222839909    0.47541638112532
C         3.18830860915544    0.07752760366028   -0.13061190633072
C         3.44315544556261    1.51713192209584   -0.53722748390772
C         4.17323553483699    1.72824876048623    0.85969875994179
N         3.41421162799276    2.31537033420248    1.95682404072292
C         4.00341532475665    3.64939828535537    2.27419713970664
C         3.95377480706519    3.94791316893729    3.80964440563704
N         4.78449464895531    3.09619360966402    4.67519860013968
C         5.40476936504935    3.52342589461041    1.72214357146073
C         5.40570635092890    2.47961947677074    0.90488049423569
C         6.43870627482273    1.75078979937263    0.16616425247957
C         5.85319427803140    0.33712289438639   -0.06959113199446
C         4.54263538891573    0.25107470038505    0.85248977338113
C         4.41161299055190   -1.11716249719142    1.52265168391941
C         3.92523399430859   -1.98496986987916    0.35071400866072
O         3.41763194625103   -1.19587826268914   -0.75332773784060
H         1.24396520600485    1.00685973536001    0.42890811865419
H         1.79376385471875   -0.16259661136443    1.54611021112189
H         1.05524566869750   -0.53208556764488   -0.13403507786449
H         2.56531626182262    2.07135981488946   -0.88656466112835
H         4.13133008013369    1.52511320305491   -1.39459551399632
H         2.42002125482662    2.08936183585155    2.04481876535964
H         3.43175369900414    4.44659395460334    1.79194328431709
H         2.94539819849261    3.93177421613309    4.23866547109688
H         4.25850218457454    5.00329328929677    3.83455945338530
H         5.68279236533865    2.90149369860485    4.23030922310088
H         4.27974536308904    2.21173007152686    4.76712410414336
H         6.21312463191497    4.01628391304837    2.23711781109052
H         7.33678666731503    1.58163351425111    0.77210402751430
H         6.71694803943304    2.25208159141085   -0.76664191299710
H         6.55442055185440   -0.43959560241408    0.26885296540859
H         5.52281062835444    0.07651361082383   -1.08008778180455
H         3.67829625095506   -1.11181721473771    2.33373145511330
H         5.37783307242044   -1.46099360401729    1.91688407904436
H         3.20544533381548   -2.73333368392099    0.70770112920303
H         4.74254937344140   -2.62579250200379    0.01341152751730
