36
 energy: -47.845962754755 gnorm: 0.141414297300 xtb: 6.4.1 (79825abcba525fcdf90b791dcacef51065a7a4e7)
C         1.88587854541450   -0.11577986689029    0.66742334753434
C         3.20912627496316    0.06591092304169   -0.11164825093097
C         3.45418639149261    1.50940473202194   -0.51041495695887
C         4.12264489949687    1.83466435941431    0.89541558303171
N         3.26722072643985    2.71776454852775    1.67829260508139
C         4.07910956292335    3.82952051270245    2.25479275933001
C         4.07529228903194    3.68727997739876    3.81329417404101
N         4.32288993713755    2.29623335759918    4.22364819456368
C         5.42213591930674    3.56722273275333    1.61299420331410
C         5.37212928551700    2.54740576186107    0.76746225007673
C         6.36732468666296    1.79064866702022    0.00530216673541
C         5.86164026202621    0.32976510189204    0.08873762398141
C         4.49630153461163    0.35898411585504    0.93147038239889
C         4.33318336895683   -0.90845492041856    1.77132013917374
C         4.05315765254076   -1.92070579161835    0.64881141137746
O         3.68293344028208   -1.21324837541146   -0.56018470692702
H         1.75846709852022   -1.09616580632084    1.13911270944870
H         1.01162055635771    0.09427882773699    0.04951083219837
H         1.90932755663730    0.61470622155425    1.48943308349798
H         2.56126085633186    2.10090767786289   -0.73979428623934
H         4.24019275095501    1.72006211118002   -1.24970205708068
H         2.48278994490187    3.16003756394412    1.19218528976433
H         3.72538464055803    4.80799896843531    1.91961324049563
H         3.07307963297241    4.00010497273983    4.12770351044319
H         4.84089582954410    4.30159819921845    4.30702595554950
H         5.25980121847181    2.03514709992854    3.91251379393209
H         3.70482884188093    1.70920385024151    3.65894054577367
H         6.22187407740875    4.26948451095270    1.78267915147403
H         7.36223806704451    1.88039821033351    0.45742783990257
H         6.40439328111279    2.16254560547130   -1.02385178396771
H         6.55003080403750   -0.38298323413910    0.56587763235976
H         5.53097107140059   -0.05937739846900   -0.87945658610185
H         3.49927818944011   -0.65889404272750    2.43310100721931
H         5.21657439653509   -1.15557012111286    2.37611317804849
H         3.25142511043566   -2.63874639405411    0.86612809378059
H         4.95422590114932   -2.46831066523401    0.36484671160693
