36
 energy: -47.834624241082 gnorm: 0.145084647249 xtb: 6.4.1 (79825abcba525fcdf90b791dcacef51065a7a4e7)
C         1.82776364849189   -0.15075469048715    0.78336848937648
C         3.06519349724718    0.06672741887450   -0.11797355934302
C         3.25793659922156    1.54273146050949   -0.41294103045308
C         4.16098167425541    1.75768140693455    0.87829712985921
N         3.59177549420956    2.32214244775417    2.09563054400380
C         4.23676461379754    3.64506066749725    2.34340769182369
C         4.22213585412232    3.93858484139285    3.88054888142684
N         3.92030659389737    2.76762853699320    4.71868139232797
C         5.56143223425497    3.52339892902721    1.62585681885162
C         5.41808780369050    2.46732732622805    0.83743023699855
C         6.36399013064524    1.86152366915051   -0.10185333424435
C         5.83673773073429    0.40675054301576   -0.15184268986709
C         4.50220946449774    0.28111185276665    0.73045608681142
C         4.55740904836683   -1.04954946381085    1.48188808000115
C         4.20774202977713   -1.89318320423255    0.24531738209854
O         3.41380738547386   -1.18171486633303   -0.73586258680361
H         1.51339020399221   -1.18825799476284    0.62640563410734
H         1.05318869570067    0.59593037972950    0.60236407698161
H         2.09275437081069    0.01485906915655    1.83798300390693
H         2.35555614455696    2.15613708688828   -0.50911588573741
H         3.88477744098731    1.80885127431320   -1.27606251406364
H         2.57366489761729    2.31391796914317    1.99257478808501
H         3.63966918770580    4.40497524504005    1.83263030774111
H         3.48333706691160    4.73910977012160    4.00087793235938
H         5.19565723348682    4.34338215273832    4.18990621547147
H         4.69912669106871    2.11014075433067    4.65605181495574
H         3.19036708233562    2.27251764698401    4.20142768339293
H         6.34344979740109    4.24183909549163    1.80980742393185
H         7.43125820200916    1.90042977430006    0.14664280114872
H         6.16383998047926    2.30668403326806   -1.08196116564704
H         6.55307940692419   -0.21922563277496    0.40002930225156
H         5.49996991439485    0.08175385309204   -1.14135699775765
H         3.69070837170888   -1.05989005999440    2.14848791981487
H         5.48184177628954   -1.28573615504689    2.02673681901123
H         3.51934956361019   -2.70716084633646    0.50826244807027
H         5.08324263887200   -2.28944774436733   -0.27324227153038
