36
 energy: -47.841267062820 gnorm: 0.138253753513 xtb: 6.4.1 (79825abcba525fcdf90b791dcacef51065a7a4e7)
C         1.76974937761273   -0.00511245144586    0.48203820309773
C         3.17615214894623    0.12097064980622   -0.14810693954507
C         3.51155698344745    1.54600139834989   -0.54752480841313
C         4.04910798616134    1.76264535522417    0.93338512886023
N         3.21001726129978    2.57074653487749    1.80940557110948
C         3.95183259273596    3.77932577118025    2.27476924670077
C         4.09138515756815    3.66020703909701    3.82896013379859
N         4.91829008408610    2.49156639575479    4.16839050417071
C         5.30080239088382    3.63069982857015    1.60947534353229
C         5.29451837830401    2.49374354178351    0.92775524763688
C         6.40041269909513    1.76799413575384    0.29984721491143
C         5.86954986655832    0.32149270627747    0.14925788015877
C         4.46297449086164    0.29733948582482    0.92137460051787
C         4.22165549519236   -0.99318092544798    1.70538912401693
C         3.94537459465642   -1.91933931638491    0.50998480071577
O         3.60660917108909   -1.14652006451020   -0.66781906274158
H         1.38109326922215    0.91332463635970    0.93513957699172
H         1.74668572024592   -0.74979941202684    1.27901809715371
H         1.14229377262640   -0.29538362045201   -0.37347444532099
H         2.70040177765894    2.19609270214963   -0.89280019670452
H         4.35633959702800    1.71541171442270   -1.23043796837359
H         2.33226844092448    2.81062111290231    1.34115935742395
H         3.50037922992302    4.71736798773694    1.94137261285253
H         3.11187398639574    3.55212673130279    4.30856351849063
H         4.70156567491729    4.52370442401507    4.12788940757513
H         5.85939477298630    2.63052924104946    3.79719690782573
H         4.40857841824765    1.65227823260621    3.88328125968020
H         6.14822732807961    4.26697446997409    1.80587073749545
H         7.24984252894883    1.68702475066668    0.98849668475072
H         6.72787859272794    2.26706651217440   -0.61804822931690
H         6.56838019543627   -0.47904416582728    0.43268536903194
H         5.51299823620373    0.05713345337893   -0.85132150159372
H         3.38943426804425   -0.83249040304626    2.39619931329991
H         5.12984993847690   -1.19685144685504    2.28927383376310
H         3.21103747652830   -2.69060740240727    0.77733930624236
H         4.86379155236131   -2.44559946844798    0.24167236887268
