36
 energy: -47.843685164396 gnorm: 0.138276986233 xtb: 6.4.1 (79825abcba525fcdf90b791dcacef51065a7a4e7)
C         1.85618218420342   -0.02679069536804    0.77092420555725
C         3.17632316194070    0.04528169363551   -0.03093739208375
C         3.36149197271439    1.50457439572500   -0.40365852831465
C         4.19971685420343    1.74623761047229    0.92599108356544
N         3.43750566353425    2.43918727500286    1.95718834103985
C         4.14436191768732    3.73153959562625    2.19739025295200
C         4.00897853326510    4.11143462482211    3.70951614662479
N         4.18213205410080    2.90092913215245    4.52768485059862
C         5.52514984516494    3.47582257601861    1.63841008436177
C         5.45536186189043    2.44893695018607    0.80289396573644
C         6.48867717210159    1.69385067031845    0.09149576620736
C         5.87153507138607    0.27615680905962    0.01314552708662
C         4.54733376971337    0.26378280885604    0.91953391223296
C         4.37480547767537   -1.13832574659799    1.50492480002437
C         4.11233170932621   -2.01080334887830    0.26678811765673
O         3.40591227364862   -1.20144281547267   -0.70539534743126
H         1.52200409892008   -1.00020734907603    1.14597906399682
H         0.96401401033067    0.24149233150143    0.20318506587948
H         2.04391758131673    0.55194623735001    1.68726408295146
H         2.47227292436485    2.13569989693892   -0.50746950519055
H         3.98957452475808    1.51763017157666   -1.30591670271056
H         2.46684670526618    2.62043730686645    1.68847471826523
H         3.80429828388130    4.60287608544624    1.63169053678987
H         3.03336909824704    4.53218746415152    3.97839567507251
H         4.77610754117201    4.86815007426255    3.92446159533820
H         5.07780595697555    2.49015548009288    4.25971719355804
H         3.38804875627933    2.25913499451879    4.47264040792023
H         6.33157443678593    4.14235959634475    1.89716383952941
H         7.46928527772584    1.74312913275215    0.57966031712780
H         6.63385003676524    2.11074047990350   -0.91048577277816
H         6.58575492274081   -0.45696784315629    0.41560368499920
H         5.54695309284407    0.09482809585029   -1.01638857707512
H         3.48717653222389   -1.10733404240815    2.14272318594388
H         5.20756367103294   -1.56860033298487    2.07815934223557
H         3.56379205218102   -2.93758521592866    0.48071225682483
H         5.02763590734041   -2.26910409369960   -0.26980296617905
