36
 energy: -47.837972256980 gnorm: 0.145052413839 xtb: 6.4.1 (79825abcba525fcdf90b791dcacef51065a7a4e7)
C         1.71360764426340    0.01427298556994    0.44287265873390
C         3.16521960587723    0.14289322284209   -0.07406854307043
C         3.44185921320597    1.56816576140206   -0.51544416946090
C         4.06280665973690    1.90360531719210    0.90965045594117
N         3.21984649975332    2.71457991446327    1.77927753372264
C         4.11500201219094    3.76809574293825    2.34169928762877
C         4.06928013338735    3.58924262732884    3.89575677202528
N         4.54532816413565    2.23086863896919    4.20055849767468
C         5.46378205212360    3.48518726638847    1.72107017217555
C         5.38547345900705    2.48115711966827    0.85895485267592
C         6.40228917239285    1.75487209165421    0.09568619683377
C         5.78062122766171    0.33720859407810    0.12054915163665
C         4.43568845787939    0.42953649308520    0.99108546673548
C         4.45088305570957   -0.93206641583383    1.68690405195761
C         4.12151396485997   -1.86515303168527    0.51048684676771
O         3.55727177276646   -1.13244266465767   -0.60486056350323
H         1.23002423453372   -0.90288106400308    0.08952204319572
H         1.02474814103755    0.84551217025913    0.28545103268649
H         1.74163598003404   -0.04156370492562    1.54103315019754
H         2.54685012886828    2.16745224699165   -0.71449459576662
H         4.04161447016575    1.60529210225217   -1.43611958712774
H         2.52863041320101    3.18561274486702    1.18971347798146
H         3.68588357961391    4.73034120857390    2.05044724967216
H         3.05027726398884    3.57789913442368    4.29905243689354
H         4.70675797243294    4.38446634502882    4.30630271429207
H         5.53203623801006    2.16745091490682    3.94529634429463
H         3.97794035709560    1.62769296857994    3.60076847199988
H         6.23954285620999    4.21638000808251    1.87949382499917
H         7.33142162134874    1.68769030714009    0.67406733017609
H         6.60943257093360    2.20864583243530   -0.87900363768833
H         6.50187684572367   -0.33852273756442    0.60297200675223
H         5.66885473270211    0.00950310302975   -0.91785895152375
H         3.64363439134429   -0.93741121886155    2.42443603496136
H         5.35800367593811   -1.22184843157034    2.23497231416452
H         3.38600208264237   -2.58921612955147    0.88510507434645
H         5.01568795380609   -2.37296875129458    0.14305371013501
