36
 energy: -47.838538693601 gnorm: 0.146071803802 xtb: 6.4.1 (79825abcba525fcdf90b791dcacef51065a7a4e7)
C         1.78425136025701    0.14166631482699    0.58622675072164
C         3.15081318933518    0.16335716846709   -0.13695156157105
C         3.46340903059618    1.55236062747343   -0.66202002648134
C         4.01434682068610    1.92855631338555    0.78156380425507
N         3.10489655006058    2.59852030202060    1.70273755160226
C         3.89606806195783    3.70517745934599    2.31663876054389
C         4.31669185631317    3.31047146133059    3.77144332409398
N         4.83958430269044    1.94626977961903    3.94534832875801
C         5.23148624940380    3.68982856074111    1.60893271167188
C         5.29005272190825    2.60152010075126    0.85421021278668
C         6.41389355645872    1.86632782366256    0.27072324464454
C         5.89301432492946    0.40950944280674    0.32750282387437
C         4.40974635713708    0.46638373464174    0.93732523481609
C         4.27366704986155   -0.80753629239252    1.77217060221522
C         4.07527235646900   -1.73284193010054    0.56074952519608
O         3.50099763990084   -1.13916728781689   -0.62962542269255
H         1.59583741463336   -0.87688881721627    0.94249453803513
H         1.07689347605152    0.25903502393833   -0.23604872770767
H         1.61410535664755    0.86805099719137    1.39448129250691
H         2.56023080211624    2.11409226598880   -0.92380853230011
H         4.28952341285663    1.68058049588891   -1.37603864836445
H         2.23258373077173    2.89404546970142    1.25667416590957
H         3.36512795984577    4.64999080806216    2.45917648075274
H         3.47566148288332    3.31698143465510    4.47412990358253
H         5.06491869300122    4.02394435419906    4.14349136121236
H         5.51911465930889    1.70945696361919    3.22082670808550
H         4.06015480600930    1.34595944283531    3.66675356155134
H         6.15254642211867    4.10407024546751    1.98522726658490
H         7.35503641089797    1.95308373100445    0.82664473689212
H         6.71389889419068    2.11040539653961   -0.75361172465724
H         6.53820550156561   -0.18205192176987    0.99333896148663
H         5.81371695494155   -0.07403340507095   -0.65130881290857
H         3.42465905337050   -0.66564128970978    2.44647288698905
H         5.09319246846281   -0.93251367043420    2.49326624290969
H         3.57251927061972   -2.67716646085767    0.80788189933358
H         5.08714693721952   -2.03694753868471    0.28495860516109
