36
 energy: -47.842256236465 gnorm: 0.145710963591 xtb: 6.4.1 (79825abcba525fcdf90b791dcacef51065a7a4e7)
C         1.75058004409409    0.01168345802913    0.49418750228990
C         3.16873258899237    0.14107584202962   -0.10834849357944
C         3.43907470717672    1.56639504558786   -0.55345975014568
C         4.09937242758553    1.83526349904926    0.86805592789395
N         3.32238205103091    2.52531680718598    1.89012504058959
C         4.04168473355027    3.78586223108180    2.23818554251458
C         4.17012007999918    3.82936885106920    3.79728307957487
N         4.55915585678798    2.55110839711951    4.41324338022630
C         5.41762271619939    3.54074808981811    1.66273872746532
C         5.36806839594127    2.52310962231316    0.81455953992684
C         6.41040683602471    1.67659526034182    0.23066981906710
C         5.81622140311251    0.24802718950540    0.17593459949126
C         4.43252259390440    0.35383528529350    0.98177845846430
C         4.38113273729941   -1.01995153264971    1.65142442869862
C         4.09037487016252   -1.87839556029526    0.40980218768663
O         3.62900317739310   -1.07992821060620   -0.70770379980545
H         1.40506360454750    0.90185731469319    1.03092767849900
H         1.71995135219215   -0.86181502704368    1.14712688932521
H         1.02888578024973   -0.14651506336784   -0.32066856229529
H         2.45658732555635    1.97112290985828   -0.81939308436627
H         4.12025596561726    1.71190145494959   -1.40407596150757
H         2.42524880827822    2.78715181088865    1.47319368259689
H         3.49928779739211    4.68523826162834    1.93517557019327
H         3.20108781379288    4.08793678768435    4.23916768586785
H         4.94166495645567    4.53959602690435    4.12531141913138
H         5.16589989083648    1.94788440903985    3.85578854232495
H         3.75408666568921    1.92095479360004    4.39687504572094
H         6.19333316458934    4.25461862412991    1.88680986591548
H         7.35308048420762    1.76279123821876    0.78407915263707
H         6.57096198766618    2.01034038462875   -0.79970656981928
H         6.52522048741616   -0.47406951471674    0.60657477863170
H         5.68782514363514   -0.11558336923613   -0.84850465765801
H         3.69011722421484   -1.12169398065177    2.49272012204951
H         5.35517825173840   -1.25531330723822    2.10204668912226
H         3.28806969658909   -2.57336288808160    0.69071273892724
H         4.81106472859569   -2.50182994407038   -0.12345829001081
