36
 energy: -47.835292998189 gnorm: 0.141310923512 xtb: 6.4.1 (79825abcba525fcdf90b791dcacef51065a7a4e7)
C         1.94294258679287   -0.53500272538419    0.84411995363239
C         3.18688881605470   -0.10439133625432    0.03287388217860
C         3.11392044552225    1.40070245893143   -0.14632413199265
C         4.16529705396838    1.61833540930578    1.02680546266956
N         3.78220249617545    2.14132468699699    2.33226835270578
C         4.13172114507175    3.58963527902954    2.42030392139596
C         4.50833815633358    3.85226759922040    3.91641802113820
N         3.36382087432278    3.85300551994399    4.84096403606954
C         5.25899364611657    3.64340789645154    1.41492320466836
C         5.25565726813536    2.51429133420710    0.72027506306380
C         6.01657756876350    2.04391258555840   -0.43891736407719
C         5.86654486292604    0.50679369610097   -0.33114634287919
C         4.68782470655618    0.22146728017066    0.71976256352827
C         4.81528317603576   -1.18699110974905    1.30144621145408
C         4.44076022009206   -1.98767421097139    0.04377728641927
O         3.50013876997734   -1.24968375622122   -0.77465714624870
H         1.16062593235401   -0.42514229168969    0.08531006592997
H         1.65677053115890    0.01877366969395    1.73949965112107
H         1.99377534042233   -1.60421877136324    1.09720659858489
H         2.17354361261581    1.92596230564843    0.05267350810333
H         3.52985699409727    1.84204289481540   -1.06335373704960
H         2.83928628506348    1.87456461021478    2.62720122757901
H         3.30627345178646    4.20341321940435    2.05043988668722
H         4.95948007343566    4.85083033055519    3.93847112536474
H         5.23537334515756    3.03460600482680    4.01719531549810
H         3.74470812962694    3.88425673550096    5.78791791791275
H         2.87252503266500    2.96537610172052    4.71352661460644
H         5.93587537660143    4.48126701945960    1.37792576053146
H         7.10374309448046    2.18273787267024   -0.47244083835357
H         5.50337973997082    2.37001882625209   -1.34947868053075
H         6.71139773814413    0.10870183640186    0.24962965420014
H         5.72621044337348   -0.03710618779183   -1.27064255732328
H         4.11561775064974   -1.14425427305880    2.14065667146911
H         5.84767594847197   -1.43283289394349    1.58595835695823
H         4.08677626606025   -2.98906826495170    0.32214610929283
H         5.36428124596055   -2.00055434296697   -0.53878089479659
