36
 energy: -47.831661576195 gnorm: 0.142172429850 xtb: 6.4.1 (79825abcba525fcdf90b791dcacef51065a7a4e7)
C         2.07492578331906   -0.67688898475556    0.36789631659777
C         3.33493775347890   -0.07882092793217   -0.29966124091349
C         3.12986171886449    1.42473735667112   -0.29945009737490
C         4.03870086858507    1.58975979180971    0.99506492837915
N         3.41717188727773    2.02141722080387    2.24081229231416
C         3.82783476223323    3.39729291282000    2.64804605864471
C         4.15830557137850    3.33667674494946    4.17653824024949
N         4.33896650167993    4.60382992060327    4.90206576378492
C         5.03982363681126    3.51797139006680    1.75309074855560
C         5.10378806104263    2.55354508334533    0.84576385460791
C         6.02914027440402    2.11754627319324   -0.20190571889238
C         5.89801066046252    0.57727166023958   -0.11694600042847
C         4.61031690482359    0.19777714081400    0.76227569840981
C         4.63606550206960   -1.24881320614379    1.25732140380393
C         4.41888302683132   -2.04791749773573   -0.03780645889174
O         3.91602333884653   -1.15065367931961   -1.05823938388673
H         1.22737506775146   -0.47688087406087   -0.29658518169176
H         1.86365217621334   -0.21815846813848    1.33495233396822
H         2.18304064332538   -1.74273182485607    0.61719534790455
H         2.09908667953097    1.73110933911122   -0.09101387811346
H         3.36017835690276    2.07401023047457   -1.15626218221227
H         2.57641227197584    1.50199059581623    2.50643732750782
H         3.13314408775529    4.21150677932863    2.42590335322183
H         5.06867713605311    2.77390066909907    4.41243997371158
H         3.37290960355921    2.77347431818463    4.69928381483478
H         3.81123292038053    5.41290101768037    4.57089416276108
H         5.30299192357073    4.94058060496520    4.95452388879651
H         5.64570202365042    4.40270331236101    1.86128746927866
H         7.06404020547235    2.46588804383576   -0.10207888498398
H         5.70182059055571    2.49345077598834   -1.17678874081313
H         6.73896288142728    0.01406692136390    0.31334936749453
H         5.64051775849296    0.21439885837644   -1.11704337671696
H         3.82467955240935   -1.38381585562251    1.97777926408592
H         5.56749688023247   -1.52938953566029    1.76813719077000
H         3.76118937593177   -2.91694818236336    0.09564258977123
H         5.39755612899870   -2.48574502881637   -0.24501902847405
