36
 energy: -47.849423232955 gnorm: 0.127098906883 xtb: 6.4.1 (79825abcba525fcdf90b791dcacef51065a7a4e7)
C         1.71211630777766    0.11853782273563    0.48874829481476
C         3.08445602537318    0.28557798261548   -0.20387700742854
C         3.37783894736112    1.75675057294468   -0.43261537179132
C         4.13302600424866    1.79616044827130    0.96635900667400
N         3.43285491491143    2.26057798706301    2.15740455101934
C         4.09795356455280    3.54999857352671    2.50748382994495
C         4.10616836776970    3.65870027113131    4.06866608522489
N         4.78945942610236    2.50994625367669    4.68363214050232
C         5.46600824522472    3.41745664998596    1.87876744295441
C         5.41611142286217    2.45893575294626    0.96432799700633
C         6.36265017870819    1.81676627096436    0.05018041234891
C         5.92134071588985    0.33309218431660    0.07874753060272
C         4.46620030167765    0.32544775025102    0.75529010024979
C         4.30927248060160   -1.10350521822082    1.27665724013909
C         3.92832696457456   -1.83075697839954   -0.02298785211384
O         3.37006784422189   -0.89175262596900   -0.97474995707761
H         1.66918852676886    0.59835219318600    1.47252492410942
H         1.50801413247989   -0.94680892688657    0.60556496103692
H         0.99785744858156    0.50634120825142   -0.25240120035749
H         2.56788828505568    2.48605902026262   -0.54168264500037
H         4.08026054847234    1.89246852341998   -1.26742818113382
H         2.42686994866154    2.43236199451978    2.08176173713342
H         3.46400740840103    4.35869034269014    2.13463453603884
H         3.07087760598999    3.69382320186938    4.42655200777926
H         4.63187311972408    4.58570635090537    4.33624965827379
H         5.79680267582498    2.57327626076820    4.52864089502370
H         4.46956499812406    1.70088526785990    4.14643034906701
H         6.31591660312412    4.07452509576375    1.96515328529841
H         7.35545773278733    1.86959622831323    0.51263836689079
H         6.22387307396291    2.15501707462446   -0.98188864711868
H         6.48136039326221   -0.25613149793220    0.81952258871906
H         6.01310297589793   -0.17235135494062   -0.88783432660449
H         3.47588219476703   -1.28910928146627    1.95977075636016
H         5.20816960039745   -1.47360394864820    1.78874224928614
H         3.16447851017885   -2.56509607980331    0.26487584661434
H         4.72772211396825   -2.28285175722151   -0.61375744440909
