36
 energy: -47.846248811856 gnorm: 0.132291890151 xtb: 6.4.1 (79825abcba525fcdf90b791dcacef51065a7a4e7)
C         1.70149759008623    0.04516535082398    0.35400862429273
C         3.14053620096149    0.07818307022019   -0.21081556843720
C         3.49604262403016    1.52367826482586   -0.50560795983386
C         4.17601878680440    1.75733498613859    0.91285144446797
N         3.36175460419677    2.45710488908710    1.89865508617269
C         4.08979089883859    3.65411168685367    2.41310151610402
C         4.12025064245725    3.81732168207362    3.96925328432718
N         4.66740601862348    2.67009314944778    4.71032913348328
C         5.40224477319232    3.53902393744893    1.67239579434734
C         5.41135768184777    2.50236537892778    0.84613457205783
C         6.41138297993063    1.79419312874405    0.04462059024750
C         5.82570731541958    0.36119621575136    0.06366984598258
C         4.43206364641884    0.25755252991750    0.85247742986091
C         4.26560347957264   -1.07657880238654    1.58099748240061
C         3.99410451460077   -1.94804512882402    0.34409537589383
O         3.50709003057907   -1.18491615128471   -0.78713609173355
H         1.33764390569574   -0.97771621872883    0.49962769649913
H         1.04174682788255    0.52014312576319   -0.37358508753745
H         1.65013444741320    0.61673047078252    1.29237685210059
H         2.63596849404819    2.16025176440363   -0.73981577142453
H         4.14796251764392    1.64881505264983   -1.38200352899113
H         2.39940857606029    2.74152308022134    1.69807139982830
H         3.54414945579665    4.58156838326146    2.22078350875568
H         3.13319810425517    4.02901961939226    4.39593137775206
H         4.71014770478474    4.69479380313238    4.26820289289620
H         5.62786740758295    2.42494239190954    4.46499583521468
H         4.11754670011800    1.88734368116827    4.34914235512558
H         6.28379439113424    4.11195495208146    1.90938954640620
H         7.43503002077170    1.91284667626177    0.41931155228894
H         6.44447506474476    2.31712207029347   -0.91677917366605
H         6.49624456106676   -0.32008614788074    0.60753421998305
H         5.73411265712061   -0.04444999291215   -0.94886934068416
H         3.45507643435804   -1.03992149922477    2.31402855650159
H         5.15396732028519   -1.41203098537441    2.13371962996765
H         3.26274414257116   -2.75170031821409    0.50168426704080
H         4.91061918989695   -2.40262093367386   -0.03773275648661
