36
 energy: -47.838476062169 gnorm: 0.135578716251 xtb: 6.4.1 (79825abcba525fcdf90b791dcacef51065a7a4e7)
C         1.76002688006492    0.13525979031427    0.44870905178738
C         3.20188987880340    0.17692063106600   -0.10828656737467
C         3.61706422472094    1.59617977478034   -0.44898799336206
C         4.22007173858335    1.69932549236967    1.01891289688267
N         3.32252722131532    2.33770065051052    1.97358765970567
C         3.89276526877397    3.67993980599001    2.29098308874688
C         4.13650961235362    3.75624091337409    3.83498452825755
N         4.92918961619472    2.74465392345309    4.55126373197532
C         5.14043201578832    3.71786555335354    1.43874213427109
C         5.41438415530936    2.50958231255577    0.96709240543402
C         6.42242655187809    1.74258365894756    0.23255390769642
C         5.88110128655292    0.29215682890104    0.24193384631748
C         4.46902630381503    0.19727609972382    0.99840194683191
C         4.27605455817829   -1.22647505957957    1.52190118219931
C         3.82946051860066   -1.95641839506655    0.24486219495346
O         3.49637405766300   -1.03400025872294   -0.82164226923390
H         1.58734578029538   -0.94520064977618    0.50035781194738
H         1.02890433482146    0.58686028961655   -0.22344002104133
H         1.65464850475931    0.65724950307078    1.41114446586545
H         2.77024404805165    2.25248590904941   -0.67694516321082
H         4.36626254301573    1.69412851291089   -1.24763427209094
H         2.33618933575044    2.43971697450918    1.72066940415218
H         3.21607479520146    4.48952525730835    2.00541676650847
H         3.15430564606245    3.74147582477172    4.32098893072336
H         4.49225318417451    4.78025463028104    4.01428636797871
H         5.82977256226304    2.77091104036801    4.07060343637451
H         4.53042271428569    1.82824776240388    4.33520217630468
H         5.80009541718190    4.56221700489470    1.55476171031774
H         7.48417191927129    1.84008220553526    0.48851496781354
H         6.38771171721988    2.08556362739969   -0.80667604481007
H         6.62056882235027   -0.23206391965592    0.86477787595552
H         5.79562440725101   -0.09894036140408   -0.77684519005504
H         3.54047040299069   -1.33330962892209    2.32385800437614
H         5.14213596948807   -1.72887588246047    1.97435744682308
H         2.96828744181206   -2.63669830298255    0.27927293996713
H         4.69660664160643   -2.54656006940296   -0.05881764266256
