36
 energy: -47.839472307524 gnorm: 0.138430274911 xtb: 6.4.1 (79825abcba525fcdf90b791dcacef51065a7a4e7)
C         1.73292238003554    0.01431943207901    0.50624561346040
C         3.10195938844997    0.26659680868773   -0.16683866581496
C         3.52945577741363    1.71026187333228   -0.35610498191283
C         4.23701894055534    1.71476868536666    1.06808748534121
N         3.41336607081643    2.25066532972024    2.14462063039373
C         4.00946729384404    3.58073925728671    2.46568745379437
C         3.99493094389298    3.78399692376596    4.01734740718933
N         4.97579482222746    2.87937407081539    4.63724196250478
C         5.40397761295334    3.47088282601287    1.89323846194160
C         5.50834369671145    2.39771420834105    1.12196129521410
C         6.45437684921394    1.66926208706082    0.27439891553620
C         5.76892639327928    0.33367685426184   -0.10405685143777
C         4.46260836499908    0.22911713443050    0.82211945347196
C         4.28942130189727   -1.22258109626551    1.27037757229479
C         3.90423151017939   -1.85237650714509   -0.07798389070077
O         3.41131520420440   -0.85593628332379   -1.00716308329997
H         1.73814310247780    0.15096632797376    1.59306735176381
H         1.28185426542993   -0.92786582383939    0.19145669592181
H         1.02144565937616    0.71874406654609    0.05078255459755
H         2.65925713265704    2.36824992432835   -0.45414920312562
H         4.24005997605513    1.82557647956584   -1.18705153188787
H         2.41318431507001    2.36253036325772    1.95925596348655
H         3.37731080501021    4.40169358166518    2.11740755011546
H         3.03385436302597    3.36290577053132    4.33382325228647
H         3.96301451936143    4.83130811826089    4.34814543416334
H         5.91198941728345    3.12472881107237    4.31149032463500
H         4.83054424045963    1.97319915687968    4.18641252479966
H         6.07373044080799    4.20845053541212    2.30429897663679
H         7.35459265786295    1.44557112415917    0.85912029620270
H         6.72147874172197    2.20759511426032   -0.64085700956263
H         6.43572416082173   -0.54085569459794   -0.09274864434586
H         5.38142151315509    0.26151685119579   -1.12523603714757
H         3.42653688371884   -1.28854105386044    1.93874286311313
H         5.21995677982387   -1.66102738885083    1.65649779106504
H         3.08172401107570   -2.55168593839674    0.12209521361062
H         4.68556289092728   -2.27241868533644   -0.71478596304122
