36
 energy: -47.843971859758 gnorm: 0.135149614741 xtb: 6.4.1 (79825abcba525fcdf90b791dcacef51065a7a4e7)
C         1.71262593023128    0.01471629639822    0.47044318480778
C         3.14437565874268    0.08379714393238   -0.10944404471068
C         3.50867327502518    1.52272945563180   -0.42488781468773
C         4.13806597113282    1.71021794590835    1.02345711998971
N         3.44473554528893    2.38098758275588    2.11610245213455
C         4.02931019537288    3.74021345155627    2.31179288439957
C         4.18604148612833    3.91617550600171    3.85893419663046
N         4.53444890143350    2.68183727734976    4.57985522032708
C         5.36637886928892    3.64145565625140    1.61399667689285
C         5.36683026963497    2.46849337216355    0.99625007030241
C         6.33955936368269    1.81258145282074    0.12014458298639
C         5.88678830700252    0.33384694879204    0.19226689343815
C         4.46337377466839    0.22593153443748    0.92537493507157
C         4.31900768158204   -1.20802319238846    1.43653934013246
C         3.97123429894589   -1.95509086369000    0.13883535303168
O         3.50145177469715   -1.06070251692068   -0.89972491901367
H         1.39110829261032   -0.99895730806821    0.20781540371696
H         1.10092462520016    0.75222457787097   -0.05125654758767
H         1.72881292813998    0.23486265144894    1.54800216312684
H         2.65932155905771    2.19978646975845   -0.56631649593744
H         4.20107537147802    1.62911714303199   -1.27223009264554
H         2.42586748779686    2.46243596126943    2.06598818709114
H         3.39040187802169    4.56287589245053    1.98026704564903
H         3.22607227267750    4.26314807082973    4.25794805878229
H         4.94628683878384    4.69460351030195    4.01185107421402
H         5.45875432270658    2.46407058989817    4.20434149841823
H         3.91291387783983    1.92019004711379    4.29863360084163
H         6.14547374903180    4.37208159512297    1.75801960599918
H         7.32452472550420    1.87300690077621    0.59817934230121
H         6.39182690391048    2.26920991715554   -0.87363497678649
H         6.64692054965396   -0.24086141615446    0.74132388300425
H         5.94182560078354   -0.09152171121359   -0.81481126865860
H         3.61931097195235   -1.13266078355883    2.27342488712180
H         5.27631459111995   -1.61452809198682    1.79085205334332
H         3.18044555228794   -2.71060125429718    0.23600078320420
H         4.85430869121519   -2.48600720507910   -0.22274242602311
