36
 energy: -47.841451722368 gnorm: 0.150304851230 xtb: 6.4.1 (79825abcba525fcdf90b791dcacef51065a7a4e7)
C         1.82015273499621   -0.06987177993851    0.47170325665423
C         3.21775662733286    0.05734249161153   -0.17750283143531
C         3.41331275704404    1.50855147025676   -0.57561591502841
C         4.04459099956248    1.84359428577321    0.84502627719110
N         3.22294832922645    2.58509856173157    1.79349221727323
C         4.04349458406822    3.72578683691207    2.29653430453058
C         4.22019901561471    3.78003659147452    3.85056329766383
N         4.82140605713093    2.54596352935696    4.38001536203699
C         5.39669795790915    3.58413504212838    1.63835445870688
C         5.28007320441164    2.58776497214237    0.77169595304532
C         6.29548868105855    1.82885911023007    0.03890915283433
C         5.88592248905379    0.39940899220573    0.46993919126192
C         4.37360819759631    0.36558688795815    1.00562906028398
C         4.24121834138220   -1.02196764497028    1.63453464941500
C         4.01177334867981   -1.95848110937384    0.43729214444501
O         3.66459436670713   -1.18658606058813   -0.73866634599600
H         1.73912572236984    0.21189540274650    1.52712876333035
H         1.57256267455250   -1.12992342582674    0.39919648102560
H         1.02725351821894    0.44134971387880   -0.09382588138430
H         2.44528012195758    1.89636184900277   -0.91076150125150
H         4.14570982295112    1.80118921306767   -1.34156999037730
H         2.38296812822505    3.07239007214838    1.47066464056847
H         3.53293325467008    4.65492370705265    2.03022898052506
H         3.25817008845611    3.97216695678500    4.33916250393880
H         4.84230789579583    4.66113029271590    4.06023246774190
H         5.69351991546641    2.35620002819535    3.88384943159443
H         4.13185739709421    1.80159797965910    4.25375981647012
H         6.22620671241975    4.25804653867296    1.77729414011612
H         7.32581958572882    2.09125488573747    0.30703585503390
H         6.12770672435069    1.73032245564420   -1.03857820908668
H         6.48139686923141    0.01797913950472    1.31224308067734
H         5.96876456504727   -0.30708050657733   -0.36203665354906
H         3.36633540852703   -1.18360584111250    2.27021174217447
H         5.10261119885464   -1.39160739137934    2.20776153994973
H         3.24293007772981   -2.70858659644810    0.66490080613593
H         4.89271396159073   -2.53093125273749    0.13950780611586
