36
 energy: -47.851555013185 gnorm: 0.130061045871 xtb: 6.4.1 (79825abcba525fcdf90b791dcacef51065a7a4e7)
C         1.81512505063966    0.10496509973304    0.56622737817949
C         3.16141683566259    0.14991701982866   -0.19300009842341
C         3.45814540692642    1.57683785545102   -0.61560245402741
C         4.11594678440274    1.81017052454925    0.81332830969824
N         3.25488791619571    2.41472492884489    1.82209201309664
C         3.94181866223892    3.65572242516380    2.28638553797989
C         4.06832501600724    3.67283993598352    3.84615367442505
N         4.80831967647683    2.54213822567039    4.42807053264217
C         5.34076032253087    3.50387171873079    1.73472554241963
C         5.40754416172016    2.44320450933420    0.94227594681848
C         6.45404836371388    1.73126105973181    0.20610448398654
C         5.87643841934872    0.30306434717994    0.05287332174936
C         4.47775615857033    0.33132541066389    0.83906106729860
C         4.31858044826911   -0.96418783436452    1.63571979361583
C         3.94601209118763   -1.86886014756746    0.45003314577583
O         3.45583376607189   -1.15607881441420   -0.71224974971502
H         1.33120697285518   -0.87598098832442    0.50749768955516
H         1.16646515152966    0.87267820262401    0.14181663286078
H         1.95643359876918    0.42325254266723    1.60958003959095
H         2.57911664982864    2.18343258731013   -0.85882630448924
H         4.12786927652853    1.75403911327028   -1.46929885610494
H         2.31014570529388    2.59988725478964    1.47508424692568
H         3.32025785820776    4.52081659661230    2.04110836313277
H         3.07499716100470    3.60179255983568    4.30375059112639
H         4.58841266752945    4.61426774054880    4.07094075482929
H         5.80605720861851    2.74968222383491    4.36311901555097
H         4.47666090153574    1.76834225223349    3.84777738814966
H         6.16716892335017    4.15648529207510    1.96426843580504
H         7.39349170404565    1.83294756908441    0.76236991746600
H         6.56344162764668    2.23529151423656   -0.75972449446541
H         6.43164904319664   -0.50532617766773    0.55066864861043
H         5.60680690103330    0.02255863695191   -0.97025392865356
H         3.57917053508884   -0.89527933698289    2.43831367243178
H         5.27946367601198   -1.22602821794248    2.09979222452010
H         3.25972013505434   -2.68681541632543    0.70603397525516
H         4.84337573524640   -2.40067954318119    0.12701977249616
