36
 energy: -47.843635660729 gnorm: 0.138388646354 xtb: 6.4.1 (79825abcba525fcdf90b791dcacef51065a7a4e7)
C         1.74111228375159   -0.08151886459981    0.39263887522647
C         3.18122370773264    0.04017214330672   -0.15710565572473
C         3.39343255928177    1.50030288204905   -0.51168902649080
C         4.03884877305355    1.78027164944206    0.91451067207205
N         3.28685152722562    2.52288335155712    1.91827405989295
C         4.05148734435481    3.75402815577704    2.27482951355388
C         4.24504248527407    3.86236895466197    3.82401391258339
N         4.64451119694193    2.56676355835481    4.39544818686608
C         5.32675135383042    3.61303488672021    1.47592529828750
C         5.31929712499879    2.44492021801310    0.84910457705823
C         6.34628477171875    1.77508347345996    0.04873069507339
C         5.87389296783357    0.32144775605575    0.29499925570069
C         4.41274023521265    0.30485995764739    0.95829380214521
C         4.21414943566095   -1.00154092925276    1.72786206057550
C         4.12174992440701   -1.93921314822616    0.51323240003329
O         3.65828593293473   -1.21916455422578   -0.65551253836477
H         1.65298162006779   -1.02641230387821    0.93971336476881
H         1.07004276751125   -0.03758416071951   -0.46643214101164
H         1.63401651096849    0.84086532425477    0.98221303695329
H         2.44907744076659    1.99002732153171   -0.77278293646693
H         4.11238973968828    1.67854786044552   -1.32412811137312
H         2.45642740460979    2.95570891081303    1.50560566593544
H         3.45650827189159    4.63863600382760    2.03326049129956
H         3.31250509999267    4.19242466092902    4.29579795123176
H         5.08160488990577    4.53909765559260    4.04651861697652
H         5.62215433673206    2.44614730356794    4.12630322703961
H         4.03103335518682    1.80058494277875    4.10889425225559
H         6.08108827759635    4.37099948102789    1.61013117606205
H         7.37701546473473    1.97740163298991    0.36335247080757
H         6.16644724010983    2.06022546384830   -0.99299469407387
H         6.53904966417905   -0.20152762394432    0.99757853427767
H         5.97806969609097   -0.18868575464598   -0.66785330475471
H         3.27172946966343   -0.81044058739360    2.24839800163401
H         5.08832918171975   -1.26088751914013    2.34086236564304
H         3.42541518445220   -2.75748716899777    0.73935067338871
H         5.05595060137801   -2.44696100500699    0.26445087454865
