36
 energy: -47.836085806302 gnorm: 0.120811081839 xtb: 6.4.1 (79825abcba525fcdf90b791dcacef51065a7a4e7)
C         1.79791637789207   -0.13595604202263    0.74219777026695
C         3.13908017259308    0.10668141082512    0.01188592220240
C         3.33481974792834    1.56502258723998   -0.35915417031642
C         4.20991821777946    1.72033115241373    0.95958465146384
N         3.57276426678390    2.29381402291073    2.13842525060312
C         4.20823377504045    3.62275623680746    2.37844264311147
C         4.19511813737722    4.02607335922567    3.89050643788865
N         4.14831975689900    2.87360273621836    4.80392151728840
C         5.46639725157686    3.56369611032167    1.54300149083243
C         5.42758793817686    2.47686498775876    0.78488302773180
C         6.33986613647567    1.82644454552172   -0.15781786515642
C         5.82320242896250    0.36702862022360   -0.16259233703906
C         4.58805524861711    0.24905733407117    0.85509933100888
C         4.46779328185951   -1.13986012204715    1.48343224827368
C         4.16588002729862   -1.93922971293212    0.20556342732562
O         3.51497672470237   -1.05663681493360   -0.74132001084824
H         1.41360154965085   -1.09797288334735    0.38623874197425
H         0.98100684106843    0.47979219009666    0.36301379521273
H         1.82736694921469   -0.03885466933770    1.83744375924684
H         2.39174331213930    2.11956856786391   -0.41293361011336
H         3.84118868117462    1.59352195591401   -1.33460599199635
H         2.59250884152070    2.44722033588965    1.88781959814859
H         3.54727010990114    4.32463219871318    1.86328839850283
H         3.27839176317571    4.59088858755321    4.09480875916068
H         5.03768771900986    4.68093253946212    4.15231303636791
H         4.72896246989356    2.13468571670845    4.40438543804520
H         3.19402391346420    2.50649073959316    4.79713062937481
H         6.27636438604426    4.27231172610168    1.60099190355336
H         7.41918157493666    1.94605114863992   -0.00583855187174
H         6.17764448834919    2.23684820089787   -1.15986190300081
H         6.60551946250727   -0.30510610883063    0.21920510415817
H         5.45162830170911   -0.04122381919144   -1.10781011712875
H         3.67371052234812   -1.24246638286158    2.22810462135321
H         5.36480384096444   -1.45496118855041    2.03416234206376
H         3.54249989287490   -2.84099497303828    0.14391486902933
H         5.13029780153071   -2.27699973707441   -0.17945709810008
