36
 energy: -47.840084746798 gnorm: 0.137751784183 xtb: 6.4.1 (79825abcba525fcdf90b791dcacef51065a7a4e7)
C         1.74039074975795    0.15436265415265    0.40728927397504
C         3.17483774577440    0.08459326641381   -0.16580985849825
C         3.56051803556075    1.47633531469312   -0.63169442519805
C         4.06507769066608    1.87932242782561    0.82158153222028
N         3.16972442805734    2.50298678409662    1.78796557063643
C         3.98415038386952    3.64241687567605    2.30364633501056
C         4.08641245864834    3.51148909263803    3.85978707400097
N         4.94535174593638    2.40047111304681    4.29861286628895
C         5.30865328025865    3.58296732668946    1.57798583374303
C         5.35817374438760    2.52134120686230    0.78555329928059
C         6.37423256471496    1.76814596482097    0.04778328794084
C         5.86918524843773    0.31684060095043    0.23619486656711
C         4.42004739834702    0.40188986121613    0.92027681206023
C         4.16964717661504   -0.82166169797052    1.80264750040635
C         4.01153169529474   -1.84176523421682    0.66357757757453
O         3.59494750737043   -1.22475036493084   -0.57939620027718
H         1.70416667682312    0.49399566407160    1.44806702722181
H         1.23940733181016   -0.81263208131450    0.34244842166883
H         1.02201465475980    0.81786703886676   -0.09625563864568
H         2.65435167881193    2.00627883977223   -0.94447068812437
H         4.38607937007112    1.65289718026700   -1.33596873829462
H         2.32564960895164    2.85790251972039    1.33100836044746
H         3.37052468919220    4.53995350101177    2.19060544424452
H         3.06773967939383    3.16408937368574    4.06657712146714
H         4.35189326565241    4.44494297211754    4.37504480975190
H         5.92638163424314    2.65066141484484    4.16535157269412
H         4.73681287672295    1.57070751566630    3.73870054866893
H         6.14270754590369    4.18683778057399    1.89616767027989
H         7.41221535031477    1.90881595795883    0.37201921003377
H         6.35088820234236    2.05183565316407   -1.00948416471901
H         6.68164922631000   -0.16029675035525    0.80346598458182
H         5.91951552968065   -0.19711909052569   -0.72894051381955
H         3.23915247129745   -0.65590227940242    2.35249818746054
H         4.99235192232501   -1.10684137885037    2.47275917469574
H         3.36239937946034   -2.68596166726741    0.93105377308811
H         5.01582306895321   -2.20002805058998    0.42804071931521
