36
 energy: -47.840731416894 gnorm: 0.140516973256 xtb: 6.4.1 (79825abcba525fcdf90b791dcacef51065a7a4e7)
C         1.74154849053252    0.00602775686575    0.25815082429351
C         3.21033608879848    0.19297774234425   -0.18756359693822
C         3.47658520341620    1.64390470670677   -0.54346536540687
C         4.14951069364210    1.86995387244686    0.87958178777049
N         3.34409876374371    2.39240903209324    1.97633386288267
C         3.93671999420282    3.72093010401139    2.31002395007419
C         4.27501726097329    3.62054384202463    3.83470462692384
N         4.83979345568748    2.30603880154955    4.17793933941307
C         5.25425821791132    3.66796102360636    1.57130028482280
C         5.40825272778027    2.57646003628074    0.83484732784823
C         6.41132442680750    1.75777270593693    0.15104803269921
C         5.89716409821178    0.31473763202884    0.37498543819835
C         4.41090561439838    0.37306819778890    0.97734360240732
C         4.18569823258219   -0.92614284780218    1.75173960074929
C         3.91879016340348   -1.81493694759157    0.52622044623906
O         3.71957184461943   -1.05228964310332   -0.68947471493443
H         1.12844441651907    0.63123314634369   -0.39995458831650
H         1.53071450246244    0.28422546347862    1.29179613471763
H         1.51241785843099   -1.06133910365759    0.12366318575299
H         2.50833372217861    2.14319772623105   -0.65749245301057
H         4.21030817629866    1.86205923895678   -1.33263401154757
H         2.34868494520042    2.47240780767368    1.75275184728094
H         3.20298157958351    4.50111886401148    2.09134570295394
H         3.36409747251655    3.72839789512106    4.43448422240544
H         4.98160884217957    4.42757350007822    4.07290244435802
H         5.61789631542409    2.16819630517482    3.53115592543648
H         4.03826033138032    1.68315364013437    4.05523394024400
H         5.97727405197716    4.43869274483514    1.78288114156854
H         7.41525428047775    1.86906333430427    0.57773820782965
H         6.53272037866269    2.10368439656386   -0.88067257695151
H         6.48026099871849   -0.29471162488820    1.08076439105471
H         5.97518210142713   -0.21084620746836   -0.58201448545852
H         3.26224565222334   -0.89770769884780    2.33659785355162
H         4.84103296894131   -1.34573025935896    2.52743480542854
H         3.03331337972887   -2.45599688064155    0.62896742601432
H         4.74107145061218   -2.47242472760556    0.23640267742651
