36
 energy: -47.838186897803 gnorm: 0.134052803906 xtb: 6.4.1 (79825abcba525fcdf90b791dcacef51065a7a4e7)
C         1.75684213102585   -0.13863197527321    0.41432755724914
C         3.13264027561704    0.17919945429037   -0.21584011832001
C         3.36831908423739    1.66994262200642   -0.37358682835713
C         4.14422478911723    1.65114777866171    1.01443594189568
N         3.46251396715911    2.27460490332824    2.14185975263824
C         3.97849722368935    3.66325794834207    2.32330182853983
C         3.94373330903703    4.00283708751833    3.85060372061268
N         4.92581755747389    3.25120016029489    4.64763456868159
C         5.36947839168610    3.50916093204157    1.75246840757228
C         5.39882588189086    2.36263046009914    1.08759383633245
C         6.48783066172186    1.60685471345882    0.46561732375483
C         5.89227169071080    0.24159007119501    0.04345506947489
C         4.47648704170520    0.18122689533996    0.79652359576767
C         4.29107458512143   -1.24881161769223    1.30541349357762
C         3.86686410792707   -1.90614379718132   -0.01785969890204
O         3.47325749606034   -0.95089459690140   -1.03363840269591
H         1.74980372766658   -1.15843129793134    0.81412866058521
H         1.15545666424428   -0.08248002816194   -0.49421525424633
H         1.37618646453518    0.49655887898959    1.22765014476502
H         2.56273976134712    2.40718518436591   -0.28801826987834
H         4.03560760738465    1.87647629829457   -1.22258495411285
H         2.46095409100283    2.26585582806798    2.35171367381606
H         3.47769965768083    4.48588879803275    1.80622639864689
H         2.97208833078843    3.66943579373786    4.23256252503356
H         4.00447543671320    5.08449227668882    4.03401357192008
H         5.84350293235556    3.59307535648917    4.35824158175335
H         4.88450514464309    2.24405977165711    4.47599712852289
H         6.11858529655001    4.27806911683217    1.84820111727883
H         7.31226780993844    1.46279065763205    1.17404810550333
H         6.87620033425377    2.07920343801016   -0.44261994984559
H         6.47319672528764   -0.65576967478971    0.30196214365010
H         5.88327324408144    0.15273344863796   -1.04750669085427
H         3.45992531633387   -1.49222998743217    1.97292439068212
H         5.17903657082363   -1.68636237831957    1.78216614835939
H         3.01406397043479   -2.52703430687606    0.28678897258406
H         4.63939468926959   -2.53168115257610   -0.46988907095860
