36
 energy: -47.840222535933 gnorm: 0.154276671180 xtb: 6.4.1 (79825abcba525fcdf90b791dcacef51065a7a4e7)
C         1.81350607736944   -0.12430896879021    0.57967311507975
C         3.15467027770059    0.16781544716898   -0.13228932933384
C         3.42513336120276    1.65252771156362   -0.29110647537676
C         4.13524619628656    1.64744077860549    1.13181439643024
N         3.42325098306214    2.29084330771009    2.22890536203066
C         3.96224052993582    3.68241402287344    2.20570328521422
C         4.13923469322306    4.10229645670425    3.70288240924288
N         4.77569314732408    3.10225678301722    4.57440233270963
C         5.38584643336394    3.47250136393120    1.74341756573979
C         5.41902878012001    2.30850167522338    1.10981276618030
C         6.45173958506741    1.62802303253254    0.32595042998645
C         5.81126407268424    0.24726738127762    0.04281824330474
C         4.46848195217309    0.17703400196016    0.91872083922157
C         4.27955137898464   -1.27797359187101    1.34955108060621
C         4.00861792742010   -1.87924144009137   -0.03903238192290
O         3.41731038412429   -0.95618995803214   -0.98643139933968
H         1.46679513515140   -1.15908124825186    0.48523285485799
H         1.08753995779422    0.49321492827660    0.04872586289136
H         1.86007202905808    0.26728685484843    1.60648570861336
H         2.44349516880473    2.13200513483260   -0.37044390383199
H         4.13232768494049    1.91882571899294   -1.08966108125592
H         2.40783661315407    2.20007692195562    2.13984110894449
H         3.38427952481323    4.47057560844761    1.71616365581807
H         3.12179269004444    4.18285492441759    4.10221310349970
H         4.57276510471376    5.10602764087061    3.81188608772507
H         5.58086999615791    2.77390783541878    4.03900471837723
H         4.18845993011688    2.27151600504376    4.67699274651014
H         6.17072788580290    4.20779910940479    1.81301592081144
H         7.35420378581314    1.60385019565868    0.94828411260084
H         6.70599658988709    2.22263145579926   -0.55758417404388
H         6.45519168271515   -0.60746315761555    0.29648574195135
H         5.61436823669169    0.15419509554675   -1.02990891439631
H         3.37534103832567   -1.36667846789318    1.95796495150902
H         5.12958147210399   -1.66187210023176    1.93031863066257
H         3.32639989845730   -2.73612040128780   -0.11597976400662
H         4.94452384847233   -2.11603809789401   -0.54936410392916
