36
 energy: -47.848991532572 gnorm: 0.137050268035 xtb: 6.4.1 (79825abcba525fcdf90b791dcacef51065a7a4e7)
C         1.77680634068085    0.13176710608057    0.46679268277180
C         3.20056670633271    0.09406183961903   -0.13523172321252
C         3.50601156385962    1.50320852513067   -0.60825685811660
C         4.07680624249900    1.79696817305244    0.84669635937087
N         3.26422590870497    2.45450551532684    1.86250675281435
C         3.99886992453203    3.66367019478094    2.33762378854478
C         4.06136586830875    3.71944223091620    3.90036412335725
N         4.71597905559525    2.57444611406209    4.55241564837983
C         5.37478456061658    3.52523325654206    1.72760784436261
C         5.33209509473672    2.51040530222744    0.87569619041425
C         6.39284586489133    1.82697552763223    0.13292114915442
C         5.86005188358656    0.37439306603041    0.07820569164147
C         4.49206949686229    0.33365593559142    0.91615961184156
C         4.37673809711340   -1.02307447620337    1.61210366893612
C         3.93191036006038   -1.92061284996913    0.44606540578739
O         3.50843396370653   -1.17881102323584   -0.72424710421416
H         1.33948759434801   -0.86948425681151    0.38850384161313
H         1.16957788223200    0.85914933842030   -0.07399956031733
H         1.97770003648134    0.47267389389235    1.49308897111380
H         2.59692105186242    2.06842673387008   -0.84039786970183
H         4.23318787150624    1.53716628473097   -1.43214365420978
H         2.32417786062814    2.76646810032439    1.60516182325993
H         3.53647703595783    4.56550887693508    1.92803065648076
H         3.07466057614985    3.79676097800228    4.37108421039662
H         4.50947186840415    4.65263310050936    4.26868809719018
H         5.62197903687140    2.44996489410238    4.09805691454451
H         4.20841347696114    1.75471754075862    4.21194518126613
H         6.21693631425229    4.16619052482983    1.93132315841335
H         7.39211032246630    1.88606752976103    0.58047441894457
H         6.60034618141738    2.13127505356839   -0.89818733322919
H         6.57902444487010   -0.33472822820987    0.51384288844973
H         5.76777727659698   -0.01711261442417   -0.93982315617618
H         3.66644143755124   -1.00786040865653    2.44329534245447
H         5.37088925995992   -1.36472753316926    1.93172360796682
H         3.08283702485141   -2.57203289622743    0.69164698651369
H         4.67674003300873   -2.61531396189255    0.05230130966421
