36
 energy: -47.846750713708 gnorm: 0.145772730243 xtb: 6.4.1 (79825abcba525fcdf90b791dcacef51065a7a4e7)
C         1.75587311358217    0.07823146721501    0.53246816178935
C         3.13768992528330    0.15472153254078   -0.15722758817052
C         3.35916832876481    1.63181296172628   -0.42535434825902
C         4.18557511400980    1.76592131763617    0.92670221047675
N         3.40161849347552    2.35354962188063    2.00587684487229
C         4.02016470641436    3.67205968185344    2.33214213911096
C         3.97022722312373    3.89803510280730    3.87991956629321
N         4.70139408697573    2.82111391072675    4.56573403121138
C         5.42453448594201    3.46075923887432    1.81491591185947
C         5.47102742009473    2.42061591368084    0.99431130747855
C         6.42075716026189    1.67816158909755    0.16319265014678
C         5.85881652976756    0.24164443454041    0.03090429545692
C         4.47962432738742    0.27384102889335    0.85065690062169
C         4.39975224034613   -1.13520946539087    1.43934529436246
C         3.98326584009012   -1.94080617567597    0.19811804063029
O         3.46651012088232   -1.06726579375546   -0.83586663426680
H         1.43238722169932   -0.92636618541485    0.82576247938181
H         1.07278972381728    0.38534189040221   -0.26084629881040
H         1.76393220334819    0.76449659359695    1.39202328897801
H         2.50758172848311    2.28614732941129   -0.64088494861150
H         3.99820764230844    1.74103985283952   -1.31328802013457
H         2.40144339916048    2.53880846308457    1.89377715100471
H         3.54538526231791    4.54685510577622    1.88025258142087
H         2.96812709224382    3.82894148055998    4.31828507427626
H         4.32645408421683    4.87263699462638    4.24125086809353
H         5.69743568939782    2.82731294204272    4.34070937262162
H         4.24518987118786    2.02498620523865    4.11456191568311
H         6.18655718541652    4.16234578108707    2.11264642660295
H         7.47346047041882    1.59884513787734    0.45958748614581
H         6.41935805548923    2.13542869653398   -0.83166618939779
H         6.59933630352994   -0.48296922995420    0.39984849616674
H         5.56471959694073   -0.03596502466860   -0.98625548181300
H         3.75679377354178   -1.24606852201536    2.31681158426500
H         5.39875438187671   -1.47090654060285    1.75002591123837
H         3.22111966412796   -2.68905113605325    0.45276800331580
H         4.84688705443952   -2.48269880737222   -0.19295971580738
