36
 energy: -47.843308156765 gnorm: 0.141190260194 xtb: 6.4.1 (79825abcba525fcdf90b791dcacef51065a7a4e7)
C         1.82698138804749    0.01905037310392    0.73687772816479
C         3.18119850466080    0.09343328321399   -0.00576070115281
C         3.50233444252103    1.48892880200511   -0.50796353808141
C         4.20300667147773    1.78623704609734    0.88833741706324
N         3.29355650696778    2.49896046100077    1.77684099951701
C         3.96697894778651    3.76363227934130    2.19472213272848
C         4.15017808525719    3.87617705861559    3.74486578772998
N         4.51663760387659    2.52542782620677    4.19861643077294
C         5.29549818678827    3.71191000744974    1.47584331449412
C         5.40773605333045    2.57758082583212    0.79897435092687
C         6.48487961394912    1.73746037566287    0.27177175063693
C         5.90248562206201    0.30613691046620    0.17695937805918
C         4.52007798861460    0.30054089648670    0.99189489864732
C         4.39707248198881   -1.06271232663844    1.67363324146156
C         4.07362603097539   -1.94043215764733    0.45376342526175
O         3.37799399152129   -1.20625620835826   -0.58369275241502
H         1.60985420465051   -1.03774317761921    0.92641478918237
H         1.07429194057094    0.41451400897360    0.05325892281515
H         1.80870934413779    0.60354711090604    1.66848359150931
H         2.75253675804619    2.18943343506767   -0.89124322791640
H         4.19366210961964    1.46426685739157   -1.36247263470774
H         2.41376326270957    2.73576517273070    1.31087451676411
H         3.38063475990936    4.63965961336782    1.90547600235537
H         3.16923242743313    4.10947899463149    4.17435238849922
H         4.96118468417808    4.55437879956641    4.04422748570830
H         4.87998568366176    1.91590611627182    3.46429030672574
H         3.62983805028297    2.12325276761900    4.51060947876309
H         6.00355425212454    4.52274917361482    1.52820906455184
H         7.44588859737624    1.70156006258037    0.79855268351669
H         6.66730218146404    2.11777610843150   -0.73863471068223
H         6.62519843996137   -0.38033129912166    0.64171941940025
H         5.72526357150898    0.02704140422465   -0.86653095409775
H         3.59012175315012   -1.10839759173047    2.41009490783623
H         5.35390040800932   -1.32392362242676    2.14635856542289
H         3.33279484355691   -2.68921304850193    0.76373156074800
H         4.84968110373712   -2.49409760209994   -0.07880031748927
