36
 energy: -47.850803035823 gnorm: 0.126925587474 xtb: 6.4.1 (79825abcba525fcdf90b791dcacef51065a7a4e7)
C         1.81115061303755    0.05429732764488    0.34339396607780
C         3.23708777332396    0.10663021149485   -0.25235190357657
C         3.42829665220708    1.59529552910991   -0.47608940488097
C         4.02072368375157    1.77581512087627    0.98864027552444
N         3.22507429604150    2.44907676639330    2.00754837558810
C         3.92965987052072    3.70853510805720    2.38812832816020
C         4.23531188853218    3.77037395945482    3.92172749512813
N         4.96359861130731    2.55576243741384    4.32050439503361
C         5.22846238066461    3.64153663404185    1.61803186605482
C         5.27728988973285    2.48728651776582    0.96782100397250
C         6.33994521476239    1.76183956023394    0.26891216035651
C         5.85459413327112    0.29243993090484    0.22245710967806
C         4.41531423706705    0.30624228803772    0.93202386254261
C         4.16403933230180   -1.07056016653249    1.54816735692247
C         4.03158511224137   -1.94521157575385    0.29097489991245
O         3.62814814815599   -1.14146865627457   -0.84501344455094
H         1.33345179537750   -0.89968903772725    0.59157732117899
H         1.15251375450960    0.44769634381716   -0.43230073265839
H         1.83164439292609    0.69572385885073    1.23670902729056
H         2.59670062837303    2.25353839023469   -0.74989777549247
H         4.18585955863988    1.76245831085302   -1.25511636651683
H         2.27612031592425    2.58803130280082    1.65059547432674
H         3.27950957053900    4.57279003484671    2.22921094579304
H         3.30959571005309    3.86606720602322    4.50054981536521
H         4.85878544822876    4.64655796330598    4.14731349396160
H         5.91591757444333    2.52347309902280    3.95332679525183
H         4.45221282598439    1.76207197030855    3.92802775942164
H         6.09497904535475    4.25289026556919    1.81023312279038
H         7.26122455223116    1.91534933589107    0.84337223091234
H         6.40938587087092    2.23916911212944   -0.71402922351381
H         6.59585692846568   -0.31934673785848    0.75706057029568
H         5.76856977647599   -0.15431177477282   -0.77312651831739
H         3.31093199522838   -1.14156310131418    2.22846057918812
H         5.05797593930941   -1.40261469431211    2.09391216062649
H         3.29325272316434   -2.73576347548268    0.47932801342442
H         4.97531938432251   -2.45685685712961    0.09093548157259
