36
 energy: -47.817192961440 gnorm: 0.138649669202 xtb: 6.4.1 (79825abcba525fcdf90b791dcacef51065a7a4e7)
C         2.11437075928855   -0.38490002036440    0.96315412499543
C         3.25491803442167   -0.02718291837081   -0.01773273738957
C         3.26002286417965    1.46855892330930   -0.27361161159084
C         4.14949117306921    1.66397986068244    1.03009345370677
N         3.34136226315253    2.29024886147150    2.06895230721828
C         4.02152084961256    3.58021342054391    2.38658884141038
C         4.53667321169460    3.55860600086607    3.86419662480049
N         3.42283884688879    3.38011766043681    4.80877093952307
C         5.21848853694716    3.66006873792125    1.46717772989745
C         5.25391013860512    2.54946494078422    0.74415896824765
C         6.04375879062386    2.06147010118524   -0.38808806222784
C         5.93057571757805    0.53344718937688   -0.16628954315216
C         4.68995859037468    0.25704553087339    0.81333965577895
C         4.81807330476421   -1.20576976251140    1.24008891601152
C         4.31739000690607   -2.03390659914767    0.04568626164679
O         3.65746479512049   -1.11705471853656   -0.86157055023257
H         2.52868069089943   -0.96172587168985    1.79712075346958
H         1.27979381234217   -0.87894112302329    0.46348196178032
H         1.76274559671235    0.56073416063738    1.40132706780934
H         2.25429358426227    1.88765313619743   -0.16102707942083
H         3.76535879481258    1.63641650878270   -1.23547822399514
H         3.21447167398235    1.78702605887177    2.95094039483508
H         3.29874302415272    4.38751902460760    2.24258677459029
H         5.11515189383197    4.48391233970854    3.96575207681679
H         5.18375531189823    2.67589223312980    3.96119089418136
H         2.63387524999003    3.97635840406832    4.55419910823895
H         3.62014916471850    3.49294987320792    5.80568388452342
H         5.89024570020735    4.50251569009210    1.49107665668707
H         6.95478796047852    2.65713268049442   -0.52051612275469
H         5.66212212767108    2.25646738081907   -1.39564391336789
H         6.83372606569547   -0.00258805813950    0.16011509139160
H         5.64097377645048    0.00976444795855   -1.08283802985998
H         3.98034240278999   -1.23855462184328    1.94206076991468
H         5.74440225280593   -1.53404359550561    1.73138438826663
H         3.50404303884676   -2.69385258823501    0.37511291304111
H         5.05145812119464   -2.60464609638666   -0.52687943073900
