36
 energy: -47.838005808237 gnorm: 0.149304899629 xtb: 6.4.1 (79825abcba525fcdf90b791dcacef51065a7a4e7)
C         1.86511964501196   -0.10300494204495    0.66460781289674
C         3.17703728777210    0.12347841724325   -0.12185645742845
C         3.30278503762665    1.56598278710544   -0.57585247721673
C         4.09849231035159    1.92148181048206    0.75435823295280
N         3.32997810964048    2.58734855821007    1.79863802709073
C         4.07549267392099    3.75133547228630    2.36154098069529
C         4.18583856651014    3.39267441184855    3.88086966171029
N         4.32092374962829    2.00556487729180    4.35244665476207
C         5.35572895021456    3.72212817524536    1.55869147350169
C         5.33665170101017    2.66479953672077    0.75922675827978
C         6.34471995919740    2.00731003474150   -0.07473315677409
C         5.90345028203054    0.52755451017711    0.03690762066974
C         4.51584801289460    0.45962999272784    0.84011885673616
C         4.56138889712275   -0.84968102853153    1.62878072631725
C         4.08154085009820   -1.89893144621477    0.61295028008130
O         3.45987299679889   -1.22933477834085   -0.51150646236479
H         1.89199535071115   -0.89501031441312    1.42083946418200
H         1.02276073153357   -0.29806086147974   -0.00071332336516
H         1.63506109600668    0.85002923201439    1.16326472531187
H         2.40075148300917    2.17520293477822   -0.69829803442671
H         3.89281530317946    1.65529532477190   -1.49922429844199
H         2.42703111053712    2.93711561095673    1.46759857887157
H         3.59180548187146    4.71798374746060    2.19867742076195
H         3.36847923048729    3.86568394150287    4.43704285569963
H         5.00415898798257    3.99465092480128    4.29953742752735
H         5.11990183219285    1.49607861369704    3.97187974595842
H         3.52811550279338    1.39516079101493    4.14182892722242
H         6.28185674325970    4.21169685798137    1.81198089178136
H         7.35665023465599    2.23465562659758    0.28112684812716
H         6.29481291760879    2.36555609496624   -1.10817803744658
H         6.66073952575168    0.04542032130322    0.67221379735154
H         5.85667697549231    0.06083678773667   -0.95211252949741
H         3.86729076288413   -0.80900389965931    2.47270344560739
H         5.55893020538785   -1.10685532696108    2.01087099605357
H         3.36996620805099   -2.64353303768901    0.99349452093810
H         4.89205396820453   -2.44620961882598    0.12716624594939
