36
 energy: -47.844470509180 gnorm: 0.146491423961 xtb: 6.4.1 (79825abcba525fcdf90b791dcacef51065a7a4e7)
C         1.72190819251402    0.04095195226948    0.40560720503603
C         3.12762276951264    0.12242070515524   -0.23335916796900
C         3.28880281075657    1.59081679685745   -0.58060208938993
C         4.08819172924790    1.83726064622455    0.77188929621332
N         3.28243351162592    2.43180772036699    1.83103061424867
C         3.98320074692480    3.66230678405322    2.30253306659728
C         4.00186170704467    3.67425632654356    3.86735975740393
N         5.00615658848246    2.73711330005659    4.39448446178957
C         5.39224542469887    3.50124686786504    1.77996430951546
C         5.37243304550765    2.47615694557081    0.93957764718307
C         6.47090864158346    1.68318403528871    0.38412420357298
C         5.79973680596435    0.31637804985624    0.10443014391103
C         4.38520643120572    0.34653099407537    0.86165975536709
C         4.29889142200300   -0.97010248873247    1.63456519799528
C         4.08597626415541   -1.86068546127745    0.39980968913078
O         3.51830482708261   -1.16433938157544   -0.73688941518903
H         1.42567415097562   -1.00513318828433    0.53914518689062
H         1.03109683159077    0.49637771339288   -0.30547267983448
H         1.71363651057531    0.53393627836368    1.38884564122355
H         2.38632834274943    2.20919068161201   -0.63500988366971
H         3.86100936281333    1.72135606983483   -1.51026177227831
H         2.33161184937657    2.68146906897470    1.54669848278944
H         3.56939507644913    4.56360435397880    1.84284374046458
H         3.04797587259073    3.38659239799758    4.32397140485894
H         4.31787296765085    4.66380948504035    4.22544935295410
H         5.99032005999784    2.95331409263063    4.22879536235088
H         4.85871791321576    1.85780713874981    3.89390439810680
H         6.19532480790855    4.01005146937898    2.28763260621789
H         7.35579312337083    1.63842595821282    1.03011291612601
H         6.82005961441191    1.95973666790494   -0.61610152734314
H         6.36756046032680   -0.59494824262529    0.34236921399000
H         5.54665489454866    0.20203536054450   -0.95436602166980
H         3.45787401569600   -0.97259950951279    2.33336122279731
H         5.19814620122122   -1.22771600340007    2.21092998187652
H         3.39383236900545   -2.67702617849091    0.64498019249277
H         5.04971024302022   -2.27612781961971    0.09805565165199
