36
 energy: -47.846677876122 gnorm: 0.134457311267 xtb: 6.4.1 (79825abcba525fcdf90b791dcacef51065a7a4e7)
C         1.84666706579946   -0.01868189108616    0.59363922345855
C         3.20781907898382    0.07819929539129   -0.13356630969805
C         3.49248004596421    1.51495929946804   -0.53034401680777
C         4.15328251365523    1.71831997038508    0.90177842258611
N         3.41192846197733    2.33149479002578    1.99673217020889
C         3.90188259852212    3.72581728419065    2.20488349043871
C         4.04624112676296    4.04357658877492    3.73045330484033
N         4.60484338341673    2.94609265046045    4.53556090481698
C         5.25066685737263    3.58243130515085    1.53806505852872
C         5.39089681756902    2.46046619673548    0.84598016412179
C         6.45963479541373    1.68079659167223    0.21836748896864
C         5.89908354959911    0.24120703849293    0.11725743397772
C         4.50967159020865    0.23805017427453    0.92020609011633
C         4.27176269314458   -1.11417912093163    1.59343128685221
C         3.88542606013050   -2.02089634332925    0.41372794955908
O         3.57927310955806   -1.17711009201574   -0.72360608762661
H         1.31249899727463   -0.87449578938966    0.16687445602035
H         1.28914802708422    0.89714766544285    0.39190596456755
H         1.92360282108745   -0.00035628107183    1.69072848641727
H         2.73142544158708    2.27887377098321   -0.72279452403309
H         4.26233634584551    1.70047158868351   -1.29299362263248
H         2.41093303038761    2.22344539115246    1.81350862694183
H         3.32878281102957    4.50917536180073    1.70209776378898
H         3.02211229985458    4.20995140076790    4.08347241043290
H         4.64865231190103    4.93723581091383    3.94441754163184
H         5.60511797677564    2.82878145569935    4.36685340186245
H         4.18569746971984    2.10622390818953    4.13005493938246
H         5.93748002853708    4.41232554623740    1.57136589650433
H         7.43893965120940    1.71586649392318    0.71036074241195
H         6.58231507224978    2.10576649144484   -0.78322594684544
H         6.56946172003016   -0.54472984838535    0.49468377413392
H         5.78854838539761   -0.06099927959669   -0.92898697170145
H         3.60661510766270   -1.05380364864023    2.45920602894869
H         5.29198120535632   -1.41540234035192    1.86845674676968
H         3.03455897849267   -2.68135798877653    0.62679963559622
H         4.75995468170993   -2.62665013967003    0.16736832278084
