36
 energy: -47.821000032019 gnorm: 0.122593623854 xtb: 6.4.1 (79825abcba525fcdf90b791dcacef51065a7a4e7)
C         2.05557942684970   -0.25117088314655    1.12195948360538
C         3.18896984340872   -0.01991227387355    0.09585311231938
C         3.15447158912801    1.48136017880971   -0.12262944265727
C         4.32865485116363    1.67424864892266    0.93239560552981
N         3.91270664368016    1.96966797456638    2.29776272721521
C         4.23202734841130    3.42529299937739    2.37966081013775
C         4.25326279400985    3.79289399597307    3.90071050391149
N         3.04287927399794    3.29302941788584    4.57139139443203
C         5.43860474442532    3.63174891116920    1.49311003895091
C         5.36853990807972    2.62919140885387    0.62857489114372
C         6.12748548780648    2.07663947847754   -0.49511154218777
C         5.94747573656969    0.54343267106968   -0.37792620353655
C         4.75536415255039    0.23963073705119    0.65249917837586
C         4.70963910498776   -1.13659524398280    1.31753160514872
C         4.33250343130344   -2.02504981966831    0.12107465919471
O         3.45035632362634   -1.20009677806819   -0.67923936537099
H         1.14652543654200    0.25971660035555    0.78655533173531
H         2.33847117848485    0.21605215687398    2.06638653410356
H         1.71781513667588   -1.29532566057565    1.19622843392069
H         2.18099442160073    1.92557723395380    0.11150737225714
H         3.34056145333514    1.67465787157372   -1.18880697406681
H         4.45273208355344    1.33887218685010    2.89584849089577
H         3.39594417338482    3.87305937365727    1.83619331687637
H         4.35670227228714    4.87709072046717    4.02302426688356
H         5.16250916243176    3.33322696833653    4.31215186741415
H         2.18383787630995    3.57993310785959    4.09968433602590
H         3.03474927195560    3.72371481202500    5.49872190924115
H         6.09061436391823    4.48980106420662    1.50636494659852
H         7.19014225633230    2.32530300652131   -0.60118840472902
H         5.70103377890692    2.45676256713920   -1.42918041502251
H         6.90464185199921    0.10993765501923   -0.05316563524752
H         5.70689230107200    0.04710746039421   -1.32341810400630
H         3.79553198599503   -1.07221999326332    1.91410213239002
H         5.55934293134473   -1.56559702765995    1.86633133184152
H         3.81729814595156   -2.94734291459893    0.42027840056025
H         5.14997565487622   -2.33352396926393   -0.53391686840723
