36
 energy: -47.841818668411 gnorm: 0.130987523696 xtb: 6.4.1 (79825abcba525fcdf90b791dcacef51065a7a4e7)
C         1.75092470423053    0.08699193682441    0.58493368095182
C         3.12804796818211    0.16728689383427   -0.11365978894207
C         3.49069196841915    1.58834532566483   -0.50330825062045
C         4.13386666563398    1.77748914630600    0.93875306048424
N         3.38424626221325    2.42049103313336    2.01072807319210
C         4.02771949123808    3.74174113637544    2.27103074586876
C         4.16268949915492    3.73308983149984    3.83015927057077
N         4.64776801490613    2.44819041961378    4.35783153616311
C         5.34002130989742    3.67629384380005    1.52403292099775
C         5.37381094892311    2.51581634043280    0.88403168107868
C         6.34731050329703    1.72396998441646    0.12953787353847
C         5.87392039278712    0.26042751033188    0.30504888494621
C         4.41234818068293    0.28076494397922    0.96731391793963
C         4.26631002352439   -1.10424987898491    1.59879106083250
C         4.10437413143180   -1.84739059002939    0.26289785594006
O         3.45698999491743   -1.06607004624040   -0.77134850568789
H         1.17375279971128   -0.70416813883028    0.09420011206738
H         1.21473492036272    1.01531144853944    0.38247145900497
H         1.73650863628396    0.04636078642004    1.68402469676446
H         2.62880488411040    2.21568353891794   -0.75510973019205
H         4.09950342055488    1.51022683923451   -1.41543434367172
H         2.41635305035172    2.58013097607133    1.71929172824284
H         3.46583222292446    4.60767672579828    1.91141302016225
H         3.17854369361526    3.87425426277711    4.29132359235650
H         4.78937458765824    4.57868904870203    4.14565011030613
H         5.59256932475288    2.35030608066385    3.98294150530130
H         4.15283788076998    1.65583064948646    3.94224996690623
H         6.10890741269339    4.41669846766010    1.67289777112040
H         7.33047299986230    1.84453984071787    0.59983520960663
H         6.30203684906652    2.04445630014831   -0.91644397076829
H         6.49356161671381   -0.25496861169626    1.05335754875689
H         5.90274073403523   -0.19412714389423   -0.69030202223784
H         3.37207982921248   -1.01289660797003    2.22139790026618
H         5.14239791563601   -1.46908105410290    2.15249530755796
H         3.66323048942677   -2.83195770267371    0.46686791236294
H         5.11183726484485   -2.03057654048141   -0.11643308386859
