36
 energy: -47.850517661578 gnorm: 0.122914799420 xtb: 6.4.1 (79825abcba525fcdf90b791dcacef51065a7a4e7)
C         1.74506295532492   -0.07177355139362    0.49993266772786
C         3.13836159188609    0.13702527561845   -0.13730400199103
C         3.41934424420758    1.61302084927547   -0.34997611213982
C         4.11959516019777    1.64798188894603    1.07740480725580
N         3.43141780557765    2.25976336075525    2.20729338913652
C         3.96691816488061    3.65270870705828    2.22873579147374
C         4.11946829253517    4.14274713127147    3.70716886715489
N         4.79325831398375    3.12723412283082    4.53145403424406
C         5.35203036290644    3.56734971813774    1.62990085110442
C         5.34770123052550    2.40337217407457    0.99540182621623
C         6.45563432228726    1.65028183402727    0.40436691997861
C         5.84684775860042    0.27247182116010    0.04676738469281
C         4.47810943611230    0.18140186596265    0.87951203726039
C         4.30005606320455   -1.24548277915785    1.39975624275923
C         4.01120364284398   -1.95039990826767    0.06456032706662
O         3.43137723130248   -1.04156654121324   -0.90345661037667
H         1.72707978005077   -1.15027096580935    0.69072322776274
H         0.95649274312574    0.19859656372908   -0.20386031684681
H         1.61578582871286    0.57772614207949    1.37816802348521
H         2.53093463617626    2.25258454070985   -0.38861883550461
H         4.08703506747504    1.82661364791138   -1.19690882607968
H         2.41055601960487    2.23143977867396    2.14189984411953
H         3.28346777657679    4.29538911965221    1.66771516397959
H         3.16671882580092    4.34841399575745    4.20828013250192
H         4.81483827554502    4.98957154261798    3.78875146829649
H         5.63377317338787    2.81828697893596    4.04067931013898
H         4.21687663796169    2.28449117874659    4.58682894373092
H         6.14626006510702    4.27711248915953    1.79416176714039
H         7.24837179853001    1.50324263491856    1.14751695398072
H         6.86478139851952    2.19501827600812   -0.45277957529033
H         6.57289949670089   -0.45600224630907    0.43629105473578
H         5.55084011164964   -0.01943549553188   -0.96582512459679
H         3.40602132032171   -1.28074840705464    2.02831853362617
H         5.17020419711030   -1.67142724850921    1.91805509899115
H         3.33653391461775   -2.80367511196605    0.21397948750532
H         4.89982489047039   -2.28629909314129   -0.47391440614804
