36
 energy: -47.841459356333 gnorm: 0.140163362189 xtb: 6.4.1 (79825abcba525fcdf90b791dcacef51065a7a4e7)
C         1.73771209223705    0.01028222935841    0.53178452392527
C         3.15050702261080    0.09033721182633   -0.09155351181060
C         3.40157344480414    1.50697608623187   -0.57409226503563
C         4.12687895152857    1.86345519398622    0.79552253750572
N         3.28350596221890    2.57451913287344    1.74821500356817
C         4.01254791957005    3.78486982016392    2.22890854355644
C         4.07932946503452    3.64675349773807    3.78635444275699
N         4.60904838557997    2.42109228021689    4.40430118547279
C         5.38228481295876    3.54799242211894    1.63549866788813
C         5.42941155024615    2.48522566628798    0.84445028836108
C         6.50030318167441    1.78620892257494    0.13132342091465
C         5.84231855586480    0.39028525145430    0.00758039987808
C         4.49360077146109    0.38785263328942    0.87715297771495
C         4.45002063068358   -0.88324758929768    1.72612988476346
C         4.06864171688055   -1.88156221076696    0.62113663403346
O         3.54548897372674   -1.21118123418810   -0.55195079490036
H         1.58305678671239    0.82760085417634    1.24449281920229
H         1.73808051703018   -0.89591388973731    1.13930078958383
H         0.99444863663496    0.03528017534656   -0.27864395410483
H         2.44713907294654    2.00725776905287   -0.77050991012480
H         3.95364797150244    1.61101160770314   -1.51914161791640
H         2.41854200143044    2.76389227358986    1.23517256533502
H         3.63154381206471    4.75207194468767    1.89091053225934
H         3.04759062270200    3.74989749489287    4.14134627264699
H         4.70575754850759    4.47080055129806    4.15492064678978
H         5.14982123720453    1.86771642931304    3.73788292905810
H         3.85487474711957    1.83826027618889    4.77447259270539
H         6.12140248012974    4.32159172314748    1.76509391169830
H         7.41605240696183    1.72718541258481    0.73152741163764
H         6.68152796267027    2.29285229819282   -0.82225371008600
H         6.40633482429664   -0.40830985704370    0.51125272133979
H         5.71673780498624    0.04723966941106   -1.02427386673893
H         3.73136601290005   -0.87288090962836    2.55018113198979
H         5.48605238977971   -1.06696960671400    2.04252306050912
H         3.29620988147919   -2.54077794831443    1.03871007269829
H         4.84026540314885   -2.55438158265443    0.24121294816629
