36
 energy: -47.851027952561 gnorm: 0.132667732508 xtb: 6.4.1 (79825abcba525fcdf90b791dcacef51065a7a4e7)
C         1.68438072741224    0.04377853972317    0.31167156153578
C         3.12983543227130    0.22891279550512   -0.20537259343037
C         3.35997915428118    1.72870202503313   -0.22561749723726
C         4.16270221160985    1.64695009169601    1.14476289983942
N         3.47432671562906    2.25126071926437    2.27854450198070
C         4.01499260088383    3.62210217896162    2.51516935460528
C         4.19775454520461    3.90565246025647    4.04336139262784
N         4.85460420710454    2.77272531987584    4.71398075528726
C         5.33953505866602    3.50809868684436    1.79613125950305
C         5.37698701533056    2.42133133511790    1.03785316306182
C         6.37954890598909    1.72841900283484    0.22623420480773
C         5.81239563231918    0.32087694963111   -0.08039510759684
C         4.47742190721571    0.19723239950768    0.80151149885011
C         4.33069466216007   -1.25960122989671    1.24249193443594
C         3.93844798006722   -1.90368446970358   -0.09705701492266
O         3.58545663498601   -0.85387433888109   -1.03114982350289
H         1.48160091097853    0.71346159088646    1.15445627797890
H         1.36657688634237   -0.97753988226025    0.52655982061026
H         1.10292968451776    0.36322824866987   -0.56566893957990
H         2.43544673457855    2.30009284273515   -0.36184879787543
H         4.04076688163015    2.03092147605128   -1.03427034222995
H         2.45400348926011    2.30316811295765    2.21952310646290
H         3.38662081566047    4.37658195463876    2.03475715175177
H         3.22248892964430    3.96611276434336    4.53969237734203
H         4.81606167138404    4.79998857232072    4.20199917285789
H         5.73005187483977    2.47980337198473    4.27744723803441
H         4.18260524415309    2.00754918479878    4.62221603385894
H         6.14047858931848    4.21196164710374    1.95301369389889
H         7.38696208390070    1.68194952348884    0.65668108480520
H         6.46720070903744    2.28303672996234   -0.71374217976702
H         6.45902465275355   -0.53251545644471    0.17089481848128
H         5.53914446790593    0.24179767858971   -1.13739761348979
H         3.63292571343847   -1.37907000145030    2.07584546656092
H         5.29244736158514   -1.69435918379215    1.54784011855323
H         3.06862378670556   -2.54616029247856    0.09324433472868
H         4.73920317426167   -2.54367503697573   -0.47340024777841
