36
 energy: -47.820906971887 gnorm: 0.157063991498 xtb: 6.4.1 (79825abcba525fcdf90b791dcacef51065a7a4e7)
C         2.06688861868816   -0.41617631529051    1.03365446828948
C         3.15994903100511    0.04226298479577    0.04067863498778
C         3.12863359743582    1.54164088341942   -0.19090071319435
C         4.14031620224816    1.72013895370061    1.02302964256017
N         3.62496882120792    2.23076114871962    2.28722700895928
C         4.29573622430932    3.55119800753419    2.47171234553289
C         4.36833465929524    3.90951733537841    3.99339245337499
N         3.12586562319415    3.27869642946650    4.46566503795396
C         5.47770412386932    3.48897325299944    1.53176271405941
C         5.28575988669234    2.51703817258822    0.65088175639831
C         6.13292309005100    1.95346284234530   -0.40205727074073
C         5.75995883290712    0.45088109904856   -0.40424574769286
C         4.65886368867780    0.31377725896422    0.75506186104055
C         4.91975638562689   -1.09539831910777    1.28846234655890
C         4.35929245328885   -1.94252488432427    0.13462143813730
O         3.46005467293365   -1.15843777032718   -0.68745665684737
H         1.03195894102811   -0.09761533543561    0.86836506064026
H         2.31545125431282   -0.02351366736173    2.02072094332315
H         2.00671477011273   -1.51386744795764    0.99741809325099
H         2.13711632528405    2.00440566139496   -0.24138740280130
H         3.68942091243113    1.84957344893527   -1.08500533751071
H         3.80901100533205    1.60090265359957    3.07249393873750
H         3.56957501090247    4.20324727963548    1.97936250793359
H         4.45254641164674    5.00129073990695    3.94776206903430
H         5.27044285241749    3.41164070972341    4.37500273442556
H         2.34471010498376    3.44090591055130    3.82828168432363
H         2.86961338996016    3.49287373334962    5.43208149316814
H         6.35086839043987    4.11269041356878    1.63229531286837
H         7.22447661928869    2.05448031493678   -0.37692506409440
H         5.80340386373272    2.23803048822484   -1.40668537029709
H         6.64840225157789   -0.17019901219841   -0.21855214845792
H         5.34056668842303    0.04674529491843   -1.33104589840158
H         4.47901180603248   -1.21532374649267    2.28193832543852
H         6.01605567148071   -1.15854752816474    1.32534459463121
H         3.86037714410346   -2.86348879709810    0.46400405015658
H         5.10053014989385   -2.34730103661447   -0.55758805570864
