36
 energy: -47.842832248573 gnorm: 0.145107664964 xtb: 6.4.1 (79825abcba525fcdf90b791dcacef51065a7a4e7)
C         1.76780394992371   -0.07998922157740    0.50145291836935
C         3.17279700277023    0.10217084718251   -0.11803140935588
C         3.42815378867645    1.53803242512059   -0.53736195230381
C         4.21030013475314    1.79710086841043    0.82282941035635
N         3.36504367194647    2.39617310178916    1.84809356104612
C         3.93961481427637    3.71348902278379    2.25066513077126
C         3.98947897362586    3.86562941647607    3.80743754816036
N         4.81578222951907    2.80636731419693    4.40734788336282
C         5.32652139736411    3.60151701170149    1.66042996285269
C         5.45759076857001    2.52041704751976    0.90445704328460
C         6.53556232305233    1.67082552505689    0.39440360010584
C         5.83117784100776    0.34506981624824    0.01615343007017
C         4.49460966356737    0.30336666336584    0.90331084505725
C         4.35788859553890   -1.05658896286955    1.58901093997428
C         3.91987285866420   -1.93118831311707    0.40313144258679
O         3.47386726495664   -1.15761983419519   -0.73787879655587
H         1.60973675801589    0.46111810144023    1.44065403421768
H         1.43367228174308   -1.10479494730038    0.66996643021754
H         1.03823170699836    0.22939168309032   -0.26134953038197
H         2.55150478100808    2.18373570823669   -0.65719664492032
H         4.07396567061956    1.64731867463974   -1.42037464947403
H         2.35675453487957    2.30070504025009    1.70154602699081
H         3.42781275084498    4.56071719807987    1.78682278894257
H         2.97254654629635    3.83496378041285    4.21493104344649
H         4.45800238809615    4.81971215308506    4.08585925327776
H         5.74723558651989    2.90620338935760    4.00089887608630
H         4.61576778129476    1.81662624226520    4.24639847129235
H         6.15134821421527    4.26951192228525    1.84748373715066
H         7.29630568733358    1.58393370984475    1.17928863261044
H         6.95127023605408    2.23765215874243   -0.44508058842038
H         6.37824755862721   -0.50814300080432    0.44311582188561
H         5.56008563640080    0.27677850489889   -1.04215620828454
H         3.59962733741018   -0.90098131418481    2.36131817043411
H         5.23099372470851   -1.43921038595667    2.13537020983440
H         3.04870770834398   -2.55499399102525    0.64296816092978
H         4.72760613837406   -2.54799736979140    0.00370115994086
