36
 energy: -47.840026143287 gnorm: 0.156052721282 xtb: 6.4.1 (79825abcba525fcdf90b791dcacef51065a7a4e7)
C         1.77364460764202   -0.15339898156697    0.33623172292865
C         3.20172640254701    0.08316362903035   -0.20743101599375
C         3.28031908858957    1.58595118317885   -0.40287024444564
C         4.11568687851711    1.78501679151829    0.93560788074989
N         3.35764205986476    2.46783215173964    1.97659017764322
C         4.14763830406438    3.67397533865794    2.36213108903354
C         4.24908971340558    3.94425654879396    3.90025634459826
N         4.65513407888493    2.82976999253201    4.77074667548017
C         5.44402035055813    3.60271405031196    1.58834769233712
C         5.37884368686132    2.48295200169689    0.88171016403037
C         6.35047747218736    1.69731856618751    0.11836810181394
C         5.73635694452140    0.27704239007594    0.06806333740962
C         4.39964710309187    0.28918722664298    0.95590419276841
C         4.31878860578707   -1.12554230201684    1.53067297281019
C         4.05300326644909   -1.92745471381431    0.24638845723889
O         3.55219086586417   -1.14432770616680   -0.86497674416347
H         1.59674716491243   -1.20549528314119    0.58458990816100
H         1.12250471100327    0.18764297698349   -0.46997841108460
H         1.64828716022546    0.40427635348712    1.27598888282243
H         2.30936704218610    2.09223706100782   -0.42995099717754
H         3.86114950769592    1.87957812011268   -1.28895557210800
H         2.44098128397656    2.74062506304233    1.61250990806657
H         3.62311690178864    4.50708454319453    1.88705944070214
H         3.25377140678126    4.22176543299695    4.26559619935536
H         4.93715411147593    4.77433933519820    4.11200309730257
H         5.62373119672683    2.52800343982364    4.65442826726345
H         4.06957098295481    2.02994357290365    4.51996499892867
H         6.24403569588545    4.31454996332654    1.71004736385389
H         7.17106233650320    1.65177967982089    0.84424131439368
H         6.65000000628204    2.15744138869777   -0.82895049396289
H         6.46160881729156   -0.43619175036014    0.48622729720639
H         5.46981286894503    0.02134418090915   -0.96234760523598
H         3.51110760914878   -1.14805009765742    2.26740712595079
H         5.22869764582091   -1.49141260663381    2.02607656689097
H         3.24530003889289   -2.64928690969468    0.42571412308665
H         4.98293067481062   -2.36948903092706   -0.11730332974257
