36
 energy: -47.841970894652 gnorm: 0.136818488855 xtb: 6.4.1 (79825abcba525fcdf90b791dcacef51065a7a4e7)
C         1.81488841268271    0.10015978910679    0.54978594135405
C         3.18556242776302    0.11278009597794   -0.16578525212410
C         3.47902062092130    1.53113060685332   -0.61845273275214
C         4.11890684098597    1.84204632702205    0.80382262925622
N         3.26138044293508    2.49272059544464    1.78656592341104
C         3.98466521273865    3.68498374191563    2.31843524919154
C         4.07248529350574    3.54310085503576    3.87449774563385
N         4.81188365974246    2.40814719998581    4.44884605549828
C         5.33694988060999    3.63107439401893    1.64549744475200
C         5.37975838793926    2.54054265550534    0.89292877055265
C         6.40711518827163    1.86717860716303    0.09599584360276
C         5.91436459440863    0.40208498412406    0.18292424109298
C         4.47320133408432    0.36353870939083    0.88773964171122
C         4.26455885201981   -0.98263561715949    1.58246252411397
C         3.79894140862595   -1.94484258901343    0.47772263396798
O         3.63752931675388   -1.13545574442687   -0.71310592349582
H         1.62767428825582   -0.90868208000371    0.93328310788809
H         0.94450370017195    0.35686743503152   -0.05585355756745
H         1.83835171357118    0.69453291509822    1.47500475377825
H         2.69925849618356    2.19563700258468   -1.00602068898066
H         4.26785631765920    1.70049722601096   -1.36530020648756
H         2.33587489944588    2.70027953169549    1.40238344879927
H         3.52094989895420    4.65627988056579    2.12754615007158
H         3.09676633535475    3.52305653628866    4.37320974874587
H         4.54601873311520    4.49924131100727    4.13692533677746
H         5.74679409291163    2.24074219057393    4.07375747188356
H         4.23910809408602    1.60206144014363    4.18874648138936
H         6.11040342623128    4.28106882983697    2.02076079064508
H         7.43588798384984    1.93601282567056    0.46910928876243
H         6.46213419948668    2.24750228236104   -0.92926807133712
H         6.71909057260068   -0.18395819082685    0.65038955809878
H         5.82856678297414    0.01254277103823   -0.83642340912890
H         3.53081161064266   -1.00387873181548    2.39289212230696
H         5.24836138427174   -1.29151771103486    1.96186294885039
H         2.82724545973688   -2.37619942077862    0.75217150924759
H         4.52918805347634   -2.74681202878155    0.35116871029331
