36
 energy: -47.837139683632 gnorm: 0.159430563103 xtb: 6.4.1 (79825abcba525fcdf90b791dcacef51065a7a4e7)
C         1.83390838765138    0.00499444616832    0.57086781726523
C         3.21032596545834    0.08888236551506   -0.12869356709628
C         3.41610738947104    1.53775205605630   -0.53015884005537
C         4.17047815080717    1.83973913822548    0.83685202801790
N         3.37718006446569    2.49461345573285    1.86948490721604
C         4.05126169918609    3.75954639116984    2.28550877633023
C         4.06346454736812    3.78391856220123    3.85025498543509
N         4.51839345882915    2.48446257908456    4.36906087638346
C         5.42899218081827    3.54271180801055    1.70304262075724
C         5.41399002353741    2.57311282926486    0.79910434153546
C         6.37029383346972    1.76508627748839    0.03978928860651
C         5.91312449359067    0.29237140484311    0.17750682339715
C         4.49460804810202    0.35458784533183    0.92526500272603
C         4.32842226449309   -0.99558161079781    1.62367862406824
C         4.01157596893919   -1.97684168155151    0.48357811248766
O         3.53747069870881   -1.20860634429892   -0.64967924575487
H         1.73778769134255    0.25986465014222    1.63184996386373
H         1.39324982836726   -0.98903028493278    0.48141149432014
H         1.13496829449319    0.72070644511978    0.11359451744582
H         2.59001379107566    2.20966771180352   -0.78687922955644
H         4.13246452319797    1.72907604116839   -1.34191960999044
H         2.43454493962250    2.66095442679849    1.50753589009433
H         3.47055839382017    4.63259463768555    1.97654734768931
H         3.11854395411597    4.14264875553714    4.27402454828023
H         4.75774377346237    4.51995678929612    4.27865995535891
H         5.29995522804893    2.30769752291408    3.73606110274998
H         3.81171825950518    1.81866255797171    4.04840781894891
H         6.27256981867532    4.12386586371982    2.03797913112478
H         7.45394557957057    1.81043024879932    0.20093543358950
H         6.31295588050550    2.08120089143878   -1.00693091751336
H         6.67023957863937   -0.28621448915195    0.72666020146691
H         5.73070958814134   -0.15586675148326   -0.80431871596396
H         3.43991479712226   -0.76280332261543    2.21697546311627
H         5.18995044502497   -1.15591107156084    2.28646358936820
H         3.23164409784913   -2.70994383065818    0.72822364088071
H         4.96412054092039   -2.44063858328487    0.21903641583374
