36
 energy: -47.841759411842 gnorm: 0.145279162338 xtb: 6.4.1 (79825abcba525fcdf90b791dcacef51065a7a4e7)
C         1.82086332023079    0.05210861632180    0.37668446887224
C         3.23794486459412    0.19210864427063   -0.22599993059140
C         3.34848679036530    1.64426126624083   -0.65235295407090
C         4.07525734776636    1.97390154275773    0.72319483948608
N         3.27606660947696    2.65982945996729    1.73082058367500
C         4.08453408723820    3.70262151423399    2.42830331636849
C         4.23190532657186    3.24267980272765    3.91689621734633
N         4.67304386703063    1.85207332644447    4.10746403736065
C         5.35563779840684    3.63907081666959    1.61302311603842
C         5.34906818721124    2.65433075085565    0.72550117761582
C         6.33489912484932    1.84482782405887    0.00659555380806
C         5.96236473710342    0.39508763189016    0.40198193225086
C         4.44274198898285    0.50749453894621    0.90528433129828
C         4.25843340017598   -0.73408248117138    1.77871059079074
C         4.02766901558057   -1.78097581772218    0.67696010304697
O         3.74753862627262   -1.10464553459908   -0.57337499548027
H         1.61932899719250   -1.00481639653899    0.58204888215427
H         1.10587663712214    0.47828573400411   -0.32860600962619
H         1.63402695329852    0.56116409591377    1.33366642517967
H         2.33275492209787    2.04659149692910   -0.73125617219077
H         4.00828871305767    1.93347341144408   -1.48286222327988
H         2.29057579443284    2.88643112762924    1.57366829584196
H         3.60239483008056    4.68267782742485    2.38450829563704
H         3.27815845792515    3.32112886020122    4.45108302511134
H         4.99238054368019    3.88690045824337    4.37945853143565
H         5.32912404718635    1.68211786596326    3.34362679554449
H         3.83878171376773    1.28116006510603    3.95396292594273
H         6.12911922710175    4.35192416625538    1.84778291179776
H         7.37448626220843    2.15130864546657    0.17288820482721
H         6.19170535619495    1.90580935308485   -1.07720147193968
H         6.48255046346132   -0.06653792192367    1.25395782440183
H         5.95114023407606   -0.24688600871247   -0.48453813706377
H         3.31720112541873   -0.56521352962464    2.30899110487980
H         5.06747301455670   -0.92409124656986    2.49743984757392
H         3.22813736944828   -2.46380120612165    0.99331833479939
H         4.87710010501701   -2.45215984541410    0.53409708976167
