36
 energy: -47.837207747399 gnorm: 0.132680509473 xtb: 6.4.1 (79825abcba525fcdf90b791dcacef51065a7a4e7)
C         1.90060864031245   -0.06479310016228    0.74532893725327
C         3.18527252373109    0.11268528102827   -0.09674515152960
C         3.37674189377324    1.54831934033216   -0.54955641282237
C         4.13611246849481    1.81201924531177    0.82259840001933
N         3.40811406868663    2.33665713751730    1.97120028845655
C         4.14534801097351    3.56414090097972    2.39225488418835
C         4.14509730332301    3.77282823192826    3.94326202982259
N         4.02218172735847    2.61646144796741    4.84460178576713
C         5.45038207731998    3.42647050436095    1.64234936907191
C         5.33504464295415    2.59105383412204    0.61949654632816
C         6.23999559093826    1.91359670432401   -0.31114776194253
C         5.94823911571858    0.41794217765182   -0.03773469058985
C         4.58425568668124    0.35688136318320    0.80548703022072
C         4.52062545497879   -0.99406431035469    1.51910725817826
C         4.09135000095973   -1.90899352878214    0.36078123369686
O         3.48982256148987   -1.14712984060361   -0.71484046330512
H         1.79303131866388   -1.04645637153292    1.21929672013818
H         1.10063676846978    0.36230955428872    0.13878472090755
H         1.88667427671408    0.51543523116031    1.67967400322279
H         2.52836084709176    2.14568038551683   -0.90057779776721
H         4.13570255512243    1.60487154279164   -1.34297213630867
H         2.48894292625713    2.71698279298372    1.73096249764786
H         3.74104039572010    4.51895814511514    2.04621137824729
H         3.34953868852389    4.46669163976198    4.23785155529410
H         5.15309953723750    4.16078637616747    4.14507062690669
H         4.73346181743596    1.92877607091773    4.59173253768512
H         3.15364313168414    2.11999896094426    4.63326414337650
H         6.21081840271097    4.15007780454567    1.88663362742451
H         7.25699892507440    2.23678944563725   -0.05900511578752
H         6.13173585977580    2.12774237010166   -1.37944582342194
H         6.77651849731402   -0.03364405057553    0.52757713731710
H         5.78492163783565   -0.15761417467935   -0.95437874272084
H         3.80437752284725   -0.97425200786716    2.34507867139776
H         5.50733151310815   -1.28267817953922    1.90683582036046
H         3.46002601728100   -2.69846926759012    0.78943260613694
H         4.91206805595291   -2.43343122616998   -0.13299808139674
