36
 energy: -47.843191663491 gnorm: 0.137271740969 xtb: 6.4.1 (79825abcba525fcdf90b791dcacef51065a7a4e7)
C         1.75050886863310   -0.05733657634850    0.38410095372179
C         3.19869276027227    0.08992884695166   -0.13745917441229
C         3.46841312932500    1.50171616185395   -0.62413280951112
C         4.04772652472772    1.91176315350113    0.79897913432011
N         3.21537283010526    2.66734330389832    1.72677159874607
C         4.03009720913121    3.77267562019840    2.31156378109173
C         4.11329503803401    3.56585877013134    3.86058880193113
N         4.92912836120432    2.39775187530663    4.22753292263775
C         5.36778155564796    3.61350843794717    1.62622319819884
C         5.34601481748716    2.54255387985627    0.84517636007701
C         6.37611298633112    1.77554662403075    0.14191195002828
C         5.85989594843458    0.33795560279213    0.39432238478595
C         4.38051388773185    0.44061154990943    1.00758623746054
C         4.17801922991337   -0.89069300650252    1.73214192511879
C         3.99485398874894   -1.86221422958348    0.55498897039033
O         3.62954715433936   -1.17362963226840   -0.66633643522983
H         1.57291884060297    0.52244583115754    1.29634832365113
H         1.41975815956424   -1.08363985037442    0.55015252011579
H         0.96139048090720    0.27962717293325   -0.30409043792632
H         2.49143014309151    1.95039278780375   -0.83389496046262
H         4.21653655492193    1.54025121965325   -1.42884042722034
H         2.29361127155170    3.02252348527089    1.45948884863122
H         3.57156156380212    4.75900548982070    2.20300423715857
H         3.08652133731492    3.31232984187844    4.14799403345286
H         4.46367294150355    4.45431230260691    4.40390489552307
H         5.84211494107943    2.66333879740238    3.85511851692899
H         4.77398634601598    1.52490098334073    3.71806244715368
H         6.24018329289327    4.14661734406524    1.96718627360330
H         7.39955024097627    1.91548939706668    0.50976715701625
H         6.43996174838413    1.99119610563334   -0.92965601834160
H         6.65091242423311   -0.19544342574379    0.94143547001384
H         5.74755493658550   -0.20086357285505   -0.55184219866909
H         3.32439301029040   -0.90580529328906    2.41531562178017
H         5.11988155552101   -1.14242836256472    2.23884195097993
H         3.20510239441210   -2.54989857427444    0.88508982822500
H         4.87207769332910   -2.44379183704842    0.26399567852458
