36
 energy: -47.835849322430 gnorm: 0.132243300458 xtb: 6.4.1 (79825abcba525fcdf90b791dcacef51065a7a4e7)
C         1.79124626202155   -0.07807982535454    0.68598280213712
C         3.14439514202268    0.06894359121916   -0.04772072956525
C         3.28061090405306    1.53416329466411   -0.41828812890196
C         4.11420209113535    1.72946647301238    0.92185086562872
N         3.41624109624577    2.42126483387441    1.99831655494255
C         4.12119799837304    3.69834861431651    2.31392712106846
C         4.35719970479360    3.82843833191941    3.85553455544347
N         3.99862622875464    2.80989021379594    4.85487960318484
C         5.38710916046930    3.57755911431205    1.49704025738626
C         5.31290517156412    2.50834953260228    0.71682473976275
C         6.28455172180517    1.82534389852466   -0.13955687967121
C         5.82359055164942    0.34927039044018   -0.06485214091476
C         4.53178644746658    0.26566755481943    0.88354377065746
C         4.63469010213213   -1.12577561783584    1.50936611822259
C         4.23121994203549   -1.90823082683149    0.24918052144417
O         3.54000422956429   -1.11924909337774   -0.75030046220608
H         1.39747093555640   -1.04971057991808    0.36856228035978
H         1.09977693788236    0.72663984055399    0.43188834242175
H         1.92416030331521   -0.10363488911531    1.77755991014487
H         2.44310818120998    2.23502327385516   -0.50308850193389
H         3.95659840693818    1.77935155524889   -1.24994404431591
H         2.40826600376105    2.40845943565719    1.82207913318365
H         3.54668348075949    4.58038504189702    2.01925520963206
H         3.78051005223727    4.69898669269882    4.18827697523789
H         5.40996312544819    4.12086195485144    3.97165663848978
H         4.69534653577974    2.08680389878208    5.04062242919887
H         3.25695079352823    2.25768369577938    4.41843556235702
H         6.22771434923451    4.22853261603963    1.67356825405596
H         7.30535411976157    1.92215537680225    0.24892123152167
H         6.29879330869861    2.12300506964320   -1.19313852286915
H         6.69872398262902   -0.16538793659319    0.35802206969981
H         5.46885714665580   -0.08051088840872   -1.00699135057733
H         3.82864333803784   -1.19122638315495    2.24532617776380
H         5.57147865263644   -1.44291183146541    1.98798087724819
H         3.45954896582631   -2.66302979968274    0.45014402047438
H         5.11751008696046   -2.30343006118154   -0.25155731232293
