36
 energy: -47.840585282824 gnorm: 0.134746604134 xtb: 6.4.1 (79825abcba525fcdf90b791dcacef51065a7a4e7)
C         1.80095128302159    0.07402274115931    0.46275127482560
C         3.18958428617423    0.18691361620628   -0.20799657082653
C         3.30486090567040    1.69062208577064   -0.37626970528074
C         4.00383589842077    1.66973707329562    1.05201174219566
N         3.25830619834159    2.29529186667440    2.13708295561403
C         3.92202553519398    3.59597492609869    2.44565619951305
C         4.22267232003838    3.80863723209730    3.96669526869883
N         5.25437547529931    2.95948335576114    4.58251343205487
C         5.16643971172571    3.56368916344826    1.58844194083285
C         5.25546749559432    2.38697501476860    0.98439769126595
C         6.29858240268735    1.73698435628490    0.18852923293993
C         5.93344121410301    0.26205337399939    0.48536167530109
C         4.40136639699620    0.20280477970984    0.95911100771360
C         4.20726710155503   -1.28420430109955    1.25825363785522
C         4.09987558420181   -1.91632409808021   -0.13888046450614
O         3.46414328418553   -0.96196150410897   -1.02447069658323
H         1.13496022476186    0.44168838576661   -0.32538513556667
H         1.71552876989696    0.69798766499252    1.35361508509845
H         1.55794129817103   -0.98332134917184    0.64394014669058
H         2.38636640852878    2.28246561499491   -0.45305328287376
H         4.04685955618147    1.94162033312397   -1.14773962041188
H         2.29108104459356    2.41701769991654    1.82580220393326
H         3.22856107756924    4.40101987953084    2.18895328941539
H         3.28147115629316    3.56062085772252    4.47045231522735
H         4.48986855286375    4.85754884495763    4.15563264095626
H         6.15019400790195    3.15252724718431    4.13193978539653
H         5.01476273136228    1.99691144958820    4.33444298445750
H         5.79368323578545    4.43795484455237    1.52703523906662
H         7.32723620767168    1.92135737840145    0.52049786614496
H         6.15914057043031    1.97572664311136   -0.87090333229992
H         6.50278667401460    0.00242118481764    1.38979032313599
H         6.15095587475151   -0.39445144863395   -0.36308562237288
H         3.25482644853906   -1.48118462771376    1.75794149607318
H         4.98244990326792   -1.83557987113460    1.80806893584437
H         3.45926967370716   -2.80803809367897   -0.14623804670744
H         5.05500617949543   -2.24055469594608   -0.55724765213724
