36
 energy: -47.841680600802 gnorm: 0.148680402155 xtb: 6.4.1 (79825abcba525fcdf90b791dcacef51065a7a4e7)
C         1.77222153569600   -0.14144055550004    0.46720235837921
C         3.15811123700690    0.08969459315349   -0.17842512104827
C         3.43135624547116    1.53139776808905   -0.56517148509376
C         4.12435224955102    1.81853156934356    0.83707693567866
N         3.38877041438637    2.42918105868455    1.93732197596314
C         4.00219863776088    3.75656435665297    2.23611373997936
C         4.15623976208504    3.99643641799566    3.77491399915790
N         4.63815671565219    2.79995743393796    4.48265673558555
C         5.35581772771622    3.62789367996998    1.57612556256016
C         5.40022258203347    2.49280344862603    0.89271517142382
C         6.42017640899149    1.67207849264121    0.23690445695228
C         5.83250710251951    0.23986064677714    0.25289581984444
C         4.38763116913201    0.32276131201559    0.94619441342366
C         4.28060367839441   -1.05866197899729    1.59316531549983
C         4.06882877923618   -1.94077347521001    0.35214851926003
O         3.60104568831654   -1.14428828540596   -0.76410586836398
H         1.49537433502272   -1.12911878520882    0.08284777496305
H         1.04983997438676    0.59753352033149    0.11741708480899
H         1.71320410930422   -0.06262781037328    1.56272290100269
H         2.48430418365000    2.08172965311644   -0.57098226067125
H         4.04209060953022    1.66267281581427   -1.46988042647399
H         2.37494398826906    2.50047081668925    1.81769308466333
H         3.41549530615228    4.53991956584271    1.74926624872508
H         3.17841899565322    4.20440405000474    4.22408981203575
H         4.88230716150869    4.79320747633122    3.98772546895653
H         5.58438092984655    2.64913294365012    4.12954895537172
H         3.98683848995749    2.02610965341424    4.33284997220708
H         6.05640758048857    4.40123512726989    1.84568532253860
H         7.33970054713618    1.58823563403708    0.82831878371191
H         6.58128759109269    1.92697131494120   -0.81566954952204
H         6.47259654770338   -0.40301623111771    0.87462654141086
H         5.65278364096332   -0.13307295049166   -0.76041261800797
H         3.40627075039351   -0.92029878907254    2.23506086419425
H         5.19936383886078   -1.36103597974944    2.11438495180980
H         3.41311882270177   -2.77350692692931    0.63882488529552
H         5.05432976936739   -2.31508869888421    0.06735574700627
