36
 energy: -47.844081723690 gnorm: 0.145471120819 xtb: 6.4.1 (79825abcba525fcdf90b791dcacef51065a7a4e7)
C         1.88179755225264   -0.13432767695992    0.43492773049365
C         3.19562346462490    0.18545031982723   -0.31510704143421
C         3.37548953058556    1.68877806466803   -0.41707578118646
C         4.11331300174092    1.67023467961450    0.99156286222717
N         3.43891216063072    2.31974896958755    2.10862490223613
C         4.02592526237422    3.67610273072347    2.31656080245830
C         3.95669094940240    3.96511123424100    3.85306798053000
N         4.91521973361958    3.25110464524723    4.71104401980596
C         5.39935630916667    3.47290869509025    1.71921277442282
C         5.38132231146706    2.36139823196885    0.99694488642133
C         6.39716212909024    1.68807344850362    0.18534990286064
C         5.91191008627254    0.21870654158788    0.23383047218345
C         4.42413651963534    0.18791682891848    0.83448337539026
C         4.14484460495757   -1.21763910001650    1.36811755715666
C         3.91494756149237   -1.95321723888917    0.03801822544037
O         3.49334422018550   -1.03886611426356   -1.00382928006866
H         1.68447396085039   -1.20789557432173    0.52656010115487
H         1.04809304323158    0.33468647284506   -0.08969602236895
H         1.90802798741258    0.28154124216826    1.45287900392864
H         2.40008173128502    2.17745679093054   -0.51495001694769
H         4.03607550473134    2.06802237333892   -1.20987328908282
H         2.41564269477249    2.32430593049567    2.09695295652132
H         3.51263447645488    4.53638458131002    1.87914288450297
H         2.95393326105554    3.64560417216040    4.15890318826266
H         4.01940453902400    4.99554647232480    4.22933512293608
H         5.89114336800496    3.43711200976397    4.47493446807256
H         4.79632362380837    2.23781532072832    4.64317392042243
H         6.23122236011857    4.07698486656275    2.04268854957868
H         7.43262844797434    1.74599303422814    0.54141180236128
H         6.53216606744801    2.04166668765238   -0.84206678068655
H         6.56072608890419   -0.47719332914470    0.78547844650438
H         5.88672040619298   -0.21994244531859   -0.76872954048392
H         3.27431131557014   -1.23100329833627    2.02965032128897
H         4.95687162807737   -1.59130031443981    2.00703043777677
H         3.14356345329702   -2.73194616612984    0.10229679633747
H         4.78800018433464   -2.39367837771571   -0.44799015227554
