36
 energy: -47.839734624560 gnorm: 0.143892707921 xtb: 6.4.1 (79825abcba525fcdf90b791dcacef51065a7a4e7)
C         1.83257270053087   -0.13163630799364    0.86037755789995
C         3.07264292611760    0.12447284509425   -0.02708091618515
C         3.29207823688444    1.57410441923626   -0.41843770264052
C         4.17246676124873    1.77759427319547    0.89018679331312
N         3.56818718219106    2.34733347520173    2.08799991075286
C         4.12681140512778    3.72494041682378    2.22087325465014
C         4.11414618809583    4.04141889410206    3.75347059094433
N         4.21121652677580    2.91750044531652    4.69797596499211
C         5.46387453543322    3.55830120153275    1.53609672772117
C         5.44128529794985    2.46045903321924    0.79334243532842
C         6.41875310735017    1.69550067143366    0.01656795038877
C         5.79627269334884    0.28996612286909   -0.16741512311376
C         4.52254642210802    0.29794834596426    0.80867898660343
C         4.58943260615574   -1.09600467830495    1.43380135316462
C         4.05005042023263   -1.93172271035903    0.26173724501291
O         3.33974342694444   -1.11487993681685   -0.70131281582672
H         1.06963126995560    0.57900956905097    0.52454438234919
H         2.00281421375916   -0.16225922821784    1.93757188403147
H         1.50179036848362   -1.13366411216807    0.54992126833739
H         2.34662178391165    2.11656888908489   -0.52637752923541
H         3.84234717530851    1.77640307277113   -1.34849538160209
H         2.54675859476899    2.29487585625248    2.05380596974685
H         3.46702487152628    4.31950420272595    1.58364302608470
H         3.20074627030340    4.57999949696856    4.03055262349715
H         5.02536959644164    4.57104548523665    4.06407373548717
H         5.09217759224078    2.43273908820372    4.51996633343950
H         3.45071118072430    2.25004571973135    4.55089197552793
H         6.28998994213154    4.12287291295534    1.93651881300899
H         7.38967133085463    1.64550569695558    0.52366118934386
H         6.57874874044452    2.29954453641745   -0.88252697155397
H         6.44392375727623   -0.46898914100167    0.29528274013859
H         5.66784367467315    0.05618834052474   -1.22903085536657
H         3.93405398597113   -1.13735507966842    2.30810187041000
H         5.62090240889410   -1.34742853613002    1.71677895288828
H         3.45086715498729   -2.79040101236172    0.59224426931988
H         4.86363250655947   -2.30750242616540   -0.36220571773364
