36
 energy: -47.839959902671 gnorm: 0.140273633000 xtb: 6.4.1 (79825abcba525fcdf90b791dcacef51065a7a4e7)
C         1.84270095853702   -0.16488235112097    0.73357912841831
C         3.13830099556619    0.11977697513746   -0.06098883920773
C         3.27893996252936    1.57007833462003   -0.48476986787863
C         4.13426421094960    1.83279749525014    0.82991231062909
N         3.44412107848698    2.41172099824938    1.97580188247723
C         4.07468668600636    3.70989638482052    2.35612400416449
C         4.28954614408646    3.70193047093207    3.90626772749360
N         4.10435479382775    2.35489670810238    4.46832637521030
C         5.38453637358949    3.59024496714075    1.61154180143144
C         5.34963604947670    2.60567615078938    0.72449171971138
C         6.36601453356159    1.93329460124245   -0.08721083719741
C         5.88974865227150    0.46039826199908   -0.06258994044658
C         4.55129278352181    0.36838826855482    0.81790544187582
C         4.60879607755960   -0.97632518389732    1.54371253460565
C         4.06982843567419   -1.90026608840394    0.43965676305699
O         3.64011111975967   -1.07819343032066   -0.67334509866571
H         1.84818349548493   -0.99088982966005    1.45299743908908
H         1.01070414272565   -0.19532004096646    0.02851004970083
H         1.72753165708757    0.71533131116555    1.38305562973725
H         2.27313515314492    2.00345362749401   -0.50345602212990
H         3.83423615826939    1.77549916707797   -1.41114796275200
H         2.44712058694236    2.53268811206900    1.77934740078300
H         3.49599244958475    4.54885090647686    1.96095945847897
H         3.69030644907688    4.44201271090678    4.44879237000461
H         5.35513709027387    3.91100679036883    4.07392737637388
H         4.56211420324758    1.74419715766340    3.78989009954500
H         3.11647437696739    2.11640576562323    4.35557779991799
H         6.09345468141121    4.39399566529289    1.72540739460967
H         7.36020949330319    2.09854141720165    0.34475573440568
H         6.35280414583189    2.25445363679602   -1.13388253196727
H         6.53307559251550   -0.19652028202858    0.54085250379646
H         5.70796016847757   -0.01347204110945   -1.03242183926729
H         3.92457763440418   -0.94890782873363    2.39619467875938
H         5.62479388255121   -1.31105678322400    1.79455802740175
H         3.29203344013939   -2.47232346616832    0.96250397996081
H         4.88668516145915   -2.51163868766579    0.05055566138994
