36
 energy: -47.840334499974 gnorm: 0.129071424650 xtb: 6.4.1 (79825abcba525fcdf90b791dcacef51065a7a4e7)
C         1.83101723879150    0.03113138270091    0.40566063765695
C         3.22382273934733    0.07901378401438   -0.26422645459322
C         3.41126931268604    1.54319215952046   -0.61606324865770
C         3.96442305309334    1.70536344941443    0.86606741580920
N         3.22740592074242    2.33477435293079    1.95471807710786
C         3.83480877169763    3.62611573096005    2.39177221720034
C         4.17613270288814    3.52346815705980    3.91562750879274
N         5.46209550005184    2.93628868376123    4.32333528374003
C         5.10841480011191    3.64944769427194    1.57825610216026
C         5.17534084331180    2.48868168992378    0.94139303676626
C         6.29701999218165    1.89572475468150    0.21048886064994
C         5.95193909970841    0.39737914529676    0.39142670175286
C         4.43357066036990    0.25698296829401    0.89147480195990
C         4.15941575796883   -1.08356859666258    1.57420254596939
C         3.92614472138840   -1.97453588377519    0.34340852812658
O         3.66694745612300   -1.16438393898194   -0.82949562507688
H         1.44262298730518   -0.97742908512796    0.58408932464103
H         1.04973070383318    0.55270875371873   -0.14915099508497
H         1.84065353838810    0.63866900583201    1.32253846776964
H         2.54452040236699    2.16631578230768   -0.86156242146496
H         4.17722961826191    1.80595103424596   -1.35969654606601
H         2.21571111842560    2.38857390592587    1.81043866164963
H         3.15890828732326    4.46638050739470    2.21288596441382
H         3.34885965536606    2.97207129666753    4.37684730628004
H         4.16640613567908    4.56512719386376    4.26513938570959
H         6.25890559940237    3.27631843499397    3.78273670241424
H         5.45871055821260    1.92697454351196    4.15971562868887
H         5.74185367912951    4.52138930791732    1.57394311642977
H         7.23387075961723    2.23661658478838    0.66702863900130
H         6.24126312106594    2.14905722543588   -0.85325595450255
H         6.48943669567448   -0.04763744602019    1.24149189644445
H         6.09356902289939   -0.23316970603451   -0.49204547499227
H         3.23255592160805   -1.02776055909645    2.15165266485291
H         4.95019162173470   -1.54270998391087    2.18336827507346
H         3.05665329915761   -2.63856771349700    0.43630788806902
H         4.79093646882495   -2.58447838270417    0.07408270614142
