36
 energy: -47.845353815213 gnorm: 0.136813041017 xtb: 6.4.1 (79825abcba525fcdf90b791dcacef51065a7a4e7)
C         1.82083403983488    0.03544726571608    0.65729920856438
C         3.12951828753338    0.19251627540773   -0.15117065008870
C         3.51737275410058    1.64290088683643   -0.37184484558548
C         4.17838271675166    1.64776784804342    1.07454108242949
N         3.43222069542611    2.31823744479119    2.13200298130435
C         4.01704917912475    3.68071069197807    2.30276460896424
C         3.95942546924845    4.08060675882047    3.81469590729426
N         4.68990917093866    3.09329281417488    4.62482580634981
C         5.38569677262467    3.53071973696783    1.67928101326427
C         5.43035610554388    2.36701887341967    1.04583215782950
C         6.44553093356663    1.63936071586415    0.28168762836012
C         5.85254640985174    0.22857983186250    0.04732539384096
C         4.47183110413933    0.16869113399326    0.86294826974377
C         4.27896455262124   -1.27294188920124    1.33502199681410
C         3.95461530188236   -1.96212041106122   -0.00023925046693
O         3.43119373310997   -0.97816784958095   -0.92603663311150
H         1.28909666917007   -0.76285760795435    0.12829465728236
H         1.15783052395734    0.90185617166449    0.66273122051315
H         1.94413052084992   -0.30189400927884    1.69694271879618
H         2.57519115330729    2.16163132494225   -0.57925553359909
H         4.19634184512535    1.66536773013375   -1.23626613727782
H         2.42437519688454    2.14082225705508    2.13495266033179
H         3.43647011629323    4.43476876693117    1.76498110714667
H         2.90359840757466    4.05392575742065    4.10737364434992
H         4.42998844239616    5.04695037833856    4.04285644162991
H         5.65487035232650    3.07462173956697    4.29124716811920
H         4.33942060005198    2.18352036836897    4.31665418703141
H         6.26461143506648    4.13352623879890    1.83952784845811
H         7.41503305392688    1.55861307297477    0.78752426031439
H         6.51928524096912    2.13785284031937   -0.69037469962189
H         6.54605796048871   -0.50222998661256    0.48836173387521
H         5.66669845174772    0.12312570200827   -1.02622665067196
H         3.43432021200176   -1.38683108811093    2.02003118860053
H         5.22379446512491   -1.69262661074265    1.70701852673441
H         3.29403716565277   -2.83709849725275    0.06004168712042
H         4.85821007763187   -2.27750790037909   -0.52605124118738
