36
 energy: -47.849158262860 gnorm: 0.128467842841 xtb: 6.4.1 (79825abcba525fcdf90b791dcacef51065a7a4e7)
C         1.85315345354104   -0.14266697636811    0.73237650548472
C         3.16569944479307    0.14724435869667   -0.03190295502311
C         3.38118303999821    1.60319415960476   -0.40139005833424
C         4.16855507423702    1.80313767182320    0.96574490979646
N         3.36882490113668    2.41748063899994    2.01813612506688
C         4.03461372276253    3.72904773558100    2.27118597534505
C         4.22396942584548    3.72496249440137    3.82466636677053
N         4.26984991584781    2.36795852652641    4.39135934145798
C         5.33628087696452    3.72526088779071    1.50302349429472
C         5.37032679788520    2.59035441491840    0.81871375763932
C         6.32824044060663    1.89325210576787   -0.04177043496615
C         5.89791619188845    0.40749150079965    0.02300214104630
C         4.55524160443605    0.33190697274644    0.89862422864598
C         4.43612680946335   -1.01976440594689    1.60371502568220
C         4.07585052713383   -1.89866854855710    0.39507091592439
O         3.58386576584581   -1.06314401023582   -0.68153640249595
H         1.67557595748303   -1.22165737026728    0.79661889055681
H         1.00339154315146    0.28549526908309    0.19866370757199
H         1.88286065168232    0.37082846299653    1.70464174934937
H         2.42169370164030    2.06950210564180   -0.64987295059317
H         4.04004861719403    1.63625964199661   -1.28089604674422
H         2.43084830224652    2.65988364585794    1.68847255766868
H         3.40411069103918    4.58076677190469    2.00299326075261
H         3.39260291543596    4.21472063682683    4.34438706546905
H         5.15202319426755    4.22035462427618    4.14185648448902
H         5.13031976858036    1.92662354107369    4.06335254086736
H         3.51596880596855    1.78852091690640    4.01530985304506
H         6.01384044588765    4.56152513687245    1.55888820566437
H         7.31529281037021    2.11476354197511    0.38129640208508
H         6.42058422193350    2.17111950428096   -1.09680674801944
H         6.68559638403615   -0.29804997352900    0.32520318441330
H         5.67660127770486    0.08841925509727   -1.00041695533436
H         3.74344823679065   -1.08403287530055    2.44733720096183
H         5.39281507371704   -1.34702521427543    2.03367802908918
H         3.30821791233071   -2.63642038042991    0.66348537154351
H         4.89362403993048   -2.46274168261290   -0.05824908167623
