36
 energy: -47.826259920291 gnorm: 0.140248409190 xtb: 6.4.1 (79825abcba525fcdf90b791dcacef51065a7a4e7)
C         1.85791702355416   -0.28398546821785    0.95097702707145
C         3.11888714326791    0.06832679723716    0.12831119525832
C         3.10546583771114    1.46399919571951   -0.46722397496709
C         4.06256511859662    1.91629574337911    0.71952744377062
N         3.24171713757212    2.67452700846191    1.65537295648385
C         4.12331913909627    3.65088841276549    2.36036483566300
C         4.68374701305502    3.11812808866369    3.72097522643228
N         3.63596143459303    2.43482642421718    4.49553957801887
C         5.26998600895958    3.72113321828237    1.37820086604134
C         5.21440650251706    2.75237329013648    0.47494745315052
C         6.24936262138411    2.03692033362849   -0.27403591730264
C         5.78320970048170    0.56505915496117   -0.15920940136952
C         4.56391101438336    0.48764070726391    0.88123242250932
C         4.64582156769317   -0.80500207005362    1.69408061691093
C         4.41754994634399   -1.73320309377898    0.49015911245917
O         3.59635292090071   -1.11469856572222   -0.53078220234160
H         1.39098500109978    0.68871351298317    1.13995400241773
H         2.04106252213276   -1.01720983502895    1.73781075547630
H         1.25367921640330   -0.94618757422885    0.31360364420812
H         2.12031069284802    1.94263271618553   -0.48085917064323
H         3.71239922521423    1.56120368383403   -1.37876722624671
H         2.82225693789540    2.10951915312244    2.39837810570388
H         3.62451809668016    4.62226568045035    2.41046915569703
H         5.19786051028969    3.94383155719349    4.22599405018289
H         5.48974814151970    2.42181096974670    3.45113938933847
H         2.90785498302096    3.00762830557321    4.92511192325167
H         4.13085352400085    1.80086952459596    5.12694939614947
H         6.01521928146917    4.49970167769499    1.38025796503876
H         7.27404851695731    2.09462864526383    0.11198715181107
H         6.31832962416878    2.27666056857572   -1.34015385109257
H         6.63793661487188   -0.02630307775136    0.20035551196060
H         5.44806316508692    0.13381995139247   -1.10783133810892
H         3.76488575664274   -0.85216655200884    2.34011468245339
H         5.56451331149113   -1.15386716570692    2.18552632921833
H         4.16178818028985   -2.74370510240830    0.83520334700395
H         5.43027097488373   -1.84466039297817    0.09721583285469
