36
 energy: -47.844453083275 gnorm: 0.133275721970 xtb: 6.4.1 (79825abcba525fcdf90b791dcacef51065a7a4e7)
C         1.71610564848822   -0.01823449166964    0.38045655968608
C         3.14914356929975    0.14431100280616   -0.17715436394436
C         3.38967504079863    1.57246458690096   -0.63021692067916
C         4.11510451110901    1.92326972407436    0.74079657018176
N         3.29860705876106    2.57711212721994    1.75585070586978
C         4.09356133204562    3.67292145163175    2.38415545895433
C         4.14567110965969    3.44689136166779    3.93185328772235
N         4.73489263165185    2.16678950075923    4.35477519695171
C         5.48457408913947    3.47102243328591    1.82850664214550
C         5.39242134162973    2.58933020754900    0.84281992000805
C         6.40155602622843    1.88080304351616    0.05312400018047
C         5.90496933051999    0.41666453948440    0.13411225752469
C         4.46079697950494    0.44323885202814    0.83329900728063
C         4.27333323167421   -0.78883570340819    1.71941776952474
C         3.95861359613832   -1.79157600445451    0.59756416926959
O         3.61825250542715   -1.12949463641369   -0.64543066769938
H         1.57269258324923   -1.01664225029883    0.80765178807867
H         1.04050427358129    0.12344948575701   -0.46438425145671
H         1.38079002024809    0.77692581425756    1.06247071574474
H         2.41294689743111    2.06740959819520   -0.65916855298621
H         3.99221374181815    1.67869405357831   -1.54366663440104
H         2.36218806605503    2.84789696301313    1.44435040986220
H         3.58744472345841    4.61367365116709    2.15238401921182
H         3.11226433174188    3.62708183312765    4.24925641017082
H         4.78408326317201    4.25356682852520    4.31787316053777
H         5.41764719408504    1.95668744931174    3.62506516300123
H         3.97293982461582    1.48569811760339    4.38702944638459
H         6.31350437094986    4.01771776597218    2.24748697921496
H         7.42249573171110    1.93913410607076    0.44885730894574
H         6.46902832808853    2.17443128025909   -0.99952467038199
H         6.58194806059384   -0.15425355233282    0.78626764192887
H         5.99332615091775   -0.03670757575406   -0.85826913587010
H         3.48650247358756   -0.67454874801716    2.47006298984003
H         5.22249356791146   -0.88383854265842    2.26466024273534
H         3.11282845041155   -2.45465071711775    0.82242707428962
H         4.76734369028500   -2.49476349321548    0.38800743487285
