36
 energy: -47.846057694412 gnorm: 0.136818319012 xtb: 6.4.1 (79825abcba525fcdf90b791dcacef51065a7a4e7)
C         1.83983779424771    0.04113702616772    0.75506796869687
C         3.11528205237352    0.13670338157526   -0.11387258578526
C         3.42959838210794    1.54114962524849   -0.59499599802072
C         4.16667520268367    1.85052841003009    0.77977405446303
N         3.27295340626024    2.50166302261462    1.72940449156059
C         3.93916507653603    3.75875935438952    2.18039014682898
C         4.03042847893199    3.69056527096882    3.74122138805271
N         4.54328281153821    2.42979573736819    4.29992196660141
C         5.33591763487214    3.63427821996457    1.61646455558460
C         5.43312201854403    2.53757821067106    0.87805270371792
C         6.44423484376917    1.74458968096640    0.17605320881787
C         5.90881631617817    0.29288447514088    0.12372704295029
C         4.47797119635963    0.36152795088460    0.84703363125384
C         4.38297423222655   -0.93690617431293    1.64915660897827
C         4.02067959115391   -1.92427270016646    0.52802235657064
O         3.43399806985193   -1.18629005559748   -0.57216853190787
H         1.95601818310981    0.46036375233939    1.76037001025953
H         1.45475431366058   -0.97814675852241    0.81019370494100
H         0.97062715778525    0.52638643899842    0.28723715575651
H         2.62118110849878    2.22307207122444   -0.88003973702158
H         4.09428083636505    1.52084849663414   -1.47050331834495
H         2.39238199491466    2.68386590365080    1.24090322590604
H         3.34422602353141    4.64302009889136    1.93745560562190
H         3.04530005381955    3.79994150102897    4.20887697320249
H         4.73237383409664    4.47205044445960    4.06349514097860
H         5.55925687071865    2.36651317921834    4.21889463579539
H         4.17089246744248    1.71123968414713    3.67502155967792
H         6.13092473268296    4.23329797173277    2.02960471195095
H         7.45490247314340    1.86156948261771    0.58494430885321
H         6.61945312503032    2.22289297801383   -0.79315460855275
H         6.51900524621577   -0.43029997113627    0.68428752144674
H         5.95100328449970   -0.01532398301932   -0.92574989710910
H         3.60730565272367   -0.89482369669397    2.41870175261947
H         5.33315787256423   -1.18711100484238    2.14085656372576
H         3.46754612871652   -2.74953482605418    0.99553675656884
H         4.96073476861116   -2.35057854851694    0.17166491684687
