36
 energy: -47.837490270345 gnorm: 0.136472429453 xtb: 6.4.1 (79825abcba525fcdf90b791dcacef51065a7a4e7)
C         1.77352340462078    0.03109006687233    0.56912454632842
C         3.16566199429589    0.17016386623585   -0.08932611622572
C         3.54207580412404    1.63044438647503   -0.25855130305736
C         4.26072833117247    1.58647593126260    1.15940336284199
N         3.47911503323642    2.23237352109134    2.20649928019520
C         3.94547303557883    3.64712311775804    2.29875452438455
C         3.95377817528773    4.05923897581910    3.80847805799651
N         4.83359558490675    3.16220655588386    4.57395822077262
C         5.28866900826377    3.59241066225799    1.60791703123426
C         5.42906707143304    2.42090142917012    1.00351143678008
C         6.47781585082578    1.63206824238127    0.35401055242743
C         5.87676918502759    0.24918468836263    0.00296211990547
C         4.53965864014641    0.11583071937796    0.88020451726881
C         4.19059673543259   -1.31385847710741    1.29553750196442
C         3.95976688209672   -1.96358053431937   -0.07838786236382
O         3.38863945656675   -0.95719248531421   -0.95029963335016
H         1.41862467971659   -1.00376082746792    0.51424612405597
H         0.97296650918168    0.51186717613603    0.00500612688064
H         1.84062863224727    0.18493498237990    1.65617947504173
H         2.68285208487527    2.27394980551989   -0.47636315397536
H         4.25434637063816    1.81777972836598   -1.07482580260469
H         2.46429551524088    2.14301699957535    2.10957583669400
H         3.26119678455270    4.29431807544819    1.74396499604740
H         2.93543740933228    3.98983685534091    4.20761255686850
H         4.33088258074327    5.08904192559727    3.87633733727357
H         5.80198722349731    3.17062721689032    4.25004445808442
H         4.47595713479509    2.20984190267955    4.47103011406110
H         5.92065195583395    4.46539917582176    1.60205812484350
H         7.27118468692743    1.47845135600396    1.09515357509348
H         6.97705830593261    2.27727397875907   -0.37626734342842
H         6.61757402339715   -0.50516466366451    0.30581450760249
H         5.75546633687786    0.15130439697241   -1.08049489790042
H         3.28838629391350   -1.47737320791166    1.89128213703773
H         5.00387215915979   -1.77680078207321    1.87128724645873
H         3.11131375398994   -2.64809324569264    0.05258371107348
H         4.80726018277480   -2.44983774936125   -0.56597382060186
