36
 energy: -47.848759539466 gnorm: 0.135417119000 xtb: 6.4.1 (79825abcba525fcdf90b791dcacef51065a7a4e7)
C         1.83028247376224    0.07108899603963    0.42278798316503
C         3.26268623514863    0.04989492921579   -0.15920766355230
C         3.59928928628959    1.45348512835952   -0.62758428934627
C         4.06091533215310    1.86173574594729    0.83843855522924
N         3.16710770356145    2.52698450538087    1.77815389564200
C         3.91039186788409    3.71965949498536    2.28071957681079
C         4.20743173075111    3.52554524388198    3.80494416193277
N         4.94947837956362    2.29369664290987    4.11578417874622
C         5.21781178786493    3.74677496357544    1.52286521416439
C         5.27897158791138    2.63665970095941    0.80081588231977
C         6.27628592893111    1.83001698305835    0.09464673641723
C         5.83593124732245    0.35323928593342    0.24322136059291
C         4.42541748834466    0.39302228961488    1.00746632198744
C         4.17416159263404   -0.84750904440926    1.86555103255431
C         3.97156797591505   -1.87861340328872    0.74355651135742
O         3.70507192353034   -1.26200229749733   -0.54018963904449
H         1.54478374724226   -0.90148530686581    0.83808405173275
H         1.17926395300422    0.36639193499219   -0.40137135988737
H         1.68135252538660    0.94386846636021    1.07542544424073
H         2.72710539554064    1.98136349175465   -1.02814181277936
H         4.45794830773637    1.46051428252516   -1.31415783640286
H         2.26098431621259    2.79672812841903    1.38647011660348
H         3.29335059559588    4.61432627526108    2.16359507869995
H         3.28136945516934    3.66113096081692    4.37517928523415
H         4.84018185408113    4.37977613515173    4.08283550042255
H         5.72102900932762    2.22583698207448    3.45029331391335
H         4.37125730899189    1.45135100419073    4.07563310467701
H         6.00114742557147    4.46861086380799    1.68682846559873
H         7.30600111101079    1.96735953589298    0.44557254614452
H         6.36086322929398    2.15880613377762   -0.94630650985519
H         6.56041242460083   -0.22468044430651    0.83541232203828
H         5.90875824291325   -0.18950721878806   -0.70456369204200
H         3.26986705121069   -0.72882696717052    2.46870802388181
H         4.91114642494355   -1.08292618444596    2.64571280645873
H         3.14932817371801   -2.57853826497078    0.94258116773673
H         4.84513850763922   -2.52004485629951    0.60987309539234
