36
 energy: -47.842334468582 gnorm: 0.152364451085 xtb: 6.4.1 (79825abcba525fcdf90b791dcacef51065a7a4e7)
C         1.75558803749417    0.09609256036452    0.44828643211492
C         3.14929413662815    0.28536661092261   -0.19413655253860
C         3.43604413371292    1.73158084147625   -0.55327796696489
C         4.13342893379619    1.87409051689964    0.86881048884661
N         3.33362563254342    2.50076289892972    1.91385082161465
C         4.15933181021212    3.58024986438013    2.53064450299140
C         4.21834596666849    3.49133896741906    4.09198552675581
N         4.63300401477483    2.27651020044687    4.81098169908792
C         5.52310793469647    3.39352668606368    1.90640540112019
C         5.40530434639886    2.55796720812117    0.88395036717068
C         6.29499309801363    1.82316950939124   -0.01744270055395
C         5.87176612938162    0.33720684605935    0.08080648923451
C         4.46442618168066    0.38793869288808    0.85023656161789
C         4.29843222341195   -1.03437709060716    1.38672577647465
C         3.92784308094324   -1.78578696821888    0.09787397897248
O         3.38426656043246   -0.92383267120609   -0.93207404605593
H         1.43127296071115    0.87568172786801    1.14609842788501
H         1.74239933659242   -0.89791417876252    0.89777972754033
H         1.07335515145968    0.11490831805910   -0.41430503733202
H         2.51999495202304    2.29670751263878   -0.75648321764012
H         4.22650119321402    1.77395333311820   -1.31623940805369
H         2.36436637925326    2.80189300154750    1.78310463173267
H         3.76910165253491    4.58828743269752    2.36795642475860
H         3.19139531702357    3.70931172403900    4.40663320096239
H         4.84196999109522    4.31722041381036    4.46120043059603
H         5.49509454717260    1.91327577342388    4.40155030683211
H         3.94492924055807    1.57317460440073    4.53282700470207
H         6.35857190177282    3.99082899945705    2.23317080092650
H         7.35932099864518    2.05361755141246    0.11071761338088
H         6.04267308360152    2.15648386609415   -1.02940881515273
H         6.63811692690429   -0.06754102262374    0.75788841186268
H         5.98934844714082   -0.24619417282633   -0.83788371300689
H         3.42530238472896   -0.99807940092799    2.04396177771588
H         5.16047751861316   -1.48985836495896    1.89331730493580
H         3.29484932380958   -2.65467565513405    0.32133598695694
H         4.84866101369162   -2.23127149937595   -0.28431563807971
