36
 energy: -47.845542638295 gnorm: 0.122012820344 xtb: 6.4.1 (79825abcba525fcdf90b791dcacef51065a7a4e7)
C         1.72926328269118   -0.00747133953653    0.32916221687723
C         3.18789942314146    0.14537608994983   -0.16070197685652
C         3.45954465775543    1.58869580711116   -0.54251446640894
C         4.09710574722922    1.78183062941451    0.90150940118840
N         3.31466680941598    2.40818313454420    1.95980271310137
C         3.91217882043047    3.75314796668969    2.20792813190395
C         4.14800955677263    3.81054268950254    3.75397577115689
N         4.87180650467881    2.66962823117931    4.33633124027762
C         5.24851691078307    3.63740734016353    1.51134366189982
C         5.35005334293434    2.49750347490631    0.84219409155007
C         6.38565441254604    1.73016590458162    0.14742313938815
C         5.95014466342122    0.25887119643903    0.35353511800483
C         4.45506720177510    0.30220388526191    0.93497105891377
C         4.26151240519487   -0.99520212114164    1.72086612475913
C         3.92948724275877   -1.90940390281929    0.53045171797105
O         3.64477717509654   -1.12374991044172   -0.65315360351775
H         1.65691161295706   -0.94371271356925    0.89316438479670
H         1.03291503848624    0.05258124343908   -0.50854917333287
H         1.49886293008312    0.78010152443676    1.06162685714575
H         2.58414967596446    2.16581485075886   -0.85941171666540
H         4.28083616635801    1.71832177036719   -1.26182338320460
H         2.29322970198668    2.43976569616080    1.90589377750338
H         3.29811028983813    4.51381131482382    1.71884958009350
H         3.14710845418839    3.77042145100578    4.19864439362014
H         4.59396943439395    4.78552681233939    3.99445960926322
H         5.82002704714229    2.58661375900057    3.96652074952538
H         4.38972527007698    1.80942696926998    4.06586985509724
H         6.01340571923767    4.39012641505858    1.61086661998082
H         7.35782236141495    1.93034308315344    0.61341006824046
H         6.51298240427328    2.03375501447624   -0.89682803302535
H         6.72420682453664   -0.18026342480583    0.99971069322012
H         5.95946787700587   -0.33069018744899   -0.56869288232994
H         3.48408866217387   -1.07428345956372    2.48571308540886
H         5.09853731065180   -1.47102578614183    2.25020666097376
H         3.06836145216846   -2.55320168414730    0.75309651065087
H         4.66296914959835   -2.66189280835966    0.23347398163968
