36
 energy: -47.843207940294 gnorm: 0.140456184541 xtb: 6.4.1 (79825abcba525fcdf90b791dcacef51065a7a4e7)
C         1.83842521752851   -0.14254717228125    0.46660716899681
C         3.23934620394790    0.11783637753538   -0.13386714366095
C         3.49591078470434    1.59010270498836   -0.39721129711980
C         4.17576662618371    1.68584206328518    1.03722933381782
N         3.40637075999199    2.28528715459057    2.12037667951765
C         3.94075855776273    3.67416536738788    2.23423670181415
C         4.16389442236041    4.10760273784562    3.72135335378039
N         4.68440670502328    3.07058471341461    4.62598933814340
C         5.28056280161069    3.61388769266876    1.53730316524914
C         5.40234954056459    2.44081398715070    0.93189632967224
C         6.35605737641322    1.72083976893573    0.08569220418643
C         5.91482451839782    0.23922285759470    0.16926117091170
C         4.51725438159079    0.20411191665257    0.95714875208697
C         4.28805140351302   -1.20648102659503    1.50125361628410
C         3.85572216977612   -1.98095615189448    0.24571719822170
O         3.57055429477201   -1.08025477599262   -0.85275895503847
H         1.73558753607298    0.11889037425365    1.52535923111996
H         1.68981482082770   -1.22273333964428    0.42945415171367
H         1.12421717354920    0.47774128935608   -0.09464934307796
H         2.59202573718628    2.18798250198680   -0.55639086035585
H         4.19052747308930    1.60928204521806   -1.24918999729034
H         2.39394979366076    2.35498769187414    1.98853230038249
H         3.36541215760248    4.44353091002967    1.71275818983281
H         3.25107065257052    4.47743155138449    4.20210516909464
H         4.86850376935144    4.93408090077254    3.55472135273209
H         5.53378268493242    2.61122794384551    4.29383696983975
H         3.94738019022687    2.39757279038404    4.84812612356799
H         6.02699705499467    4.34931746458112    1.78934392750481
H         7.40462440335992    1.74086942219909    0.40574089298906
H         6.26700156778377    2.15102566463589   -0.91722771113529
H         6.60189232890767   -0.31409300093600    0.82602113262093
H         5.77722231127627   -0.15906235781499   -0.84099052786269
H         3.47955356477865   -1.15963614935765    2.23594343766117
H         5.14098889768709   -1.57155326625192    2.08984520402291
H         2.98543849554333   -2.64550362287379    0.32675345586684
H         4.66926264418988   -2.57837085045107   -0.17103043395101
