36
 energy: -47.838064985721 gnorm: 0.135257178870 xtb: 6.4.1 (79825abcba525fcdf90b791dcacef51065a7a4e7)
C         2.10042090609908   -0.44267651880640    0.91670373256083
C         3.22637289741946   -0.08311813329333   -0.08024086416599
C         3.08607665371762    1.39539956921468   -0.39176307068392
C         4.00879515315558    1.68632129312835    0.87035629065130
N         3.28168047599782    2.15026136798701    2.04533576943385
C         3.99261525828755    3.36145023122597    2.55042043278869
C         4.52460194981994    3.12290333434434    4.00274930403411
N         3.96890840788131    4.17730031460928    4.86539489402531
C         5.07560073935011    3.60090613903326    1.52366405952351
C         5.11938387728083    2.58748133340205    0.67013909955228
C         6.17331965139931    2.07116788446542   -0.20543102746195
C         5.81828995580495    0.57027558068234   -0.34009815308587
C         4.64842871053228    0.31190272157563    0.72754890830424
C         4.79131431862333   -1.08099378453724    1.34218694955933
C         4.52822366279606   -1.91100204093079    0.07531612781629
O         3.59633400132916   -1.25658266614826   -0.82053571290810
H         1.11672745580817   -0.01181205738140    0.70087015761832
H         2.38305159357671   -0.06277108472452    1.89958689824757
H         2.05710147857052   -1.53924710617087    0.99097459570817
H         2.02914372438865    1.65661214265770   -0.27148253381747
H         3.55833368621060    1.84649179371854   -1.27619342902230
H         2.34746370189226    2.34879347823475    1.67782875337019
H         3.24885787204441    4.16082725320227    2.60245939963984
H         5.61748227819270    3.20361956872236    4.01825406825047
H         4.19813984130599    2.10389742225431    4.25246148612163
H         3.43906406079220    3.82804985051001    5.66543394356435
H         3.36826707264524    4.84981025784019    4.38325564796869
H         5.65260682102627    4.48595079133412    1.73651537943653
H         7.15963036231846    2.21987513708890    0.24998371415940
H         6.18853846081761    2.54912876960545   -1.19039857499212
H         6.69935393640347   -0.06771626662520   -0.17808891421265
H         5.42030556154156    0.26933102098790   -1.31437472229831
H         4.17474045053460   -1.40578945161755    2.18478819776710
H         5.80774859837701   -1.21987436080548    1.73562538039870
H         4.12806492647583   -2.87878965645550    0.40523131899609
H         5.41434902264974   -2.20503944999181   -0.49103613754289
