36
 energy: -47.839260003562 gnorm: 0.136863696767 xtb: 6.4.1 (79825abcba525fcdf90b791dcacef51065a7a4e7)
C         1.71068936754659   -0.03356073023220    0.25554606899581
C         3.19079625081158    0.09747493425800   -0.17231108832830
C         3.42575974216954    1.53717610547066   -0.59039749482142
C         4.06948463570689    1.81795484086873    0.83640715673401
N         3.30582299202470    2.38008283136285    1.94336051630573
C         4.01833390508454    3.60287082943216    2.41731713484031
C         4.07965729886851    3.85512277407717    3.96061942635525
N         5.02548962090573    2.91180930418636    4.57727704686463
C         5.38233393928841    3.39523807649432    1.80021277045936
C         5.35298515323618    2.47990795251637    0.84169260347306
C         6.34947644334325    1.70577987930926    0.09891814254800
C         5.75231127187161    0.27820928440684    0.14682312742563
C         4.38640190007128    0.33626799070091    0.98713421249478
C         4.16133599366653   -1.02429715979342    1.64786448537144
C         4.05364286163018   -1.88712843766579    0.38018299277500
O         3.67509632885312   -1.10905931335291   -0.78194629675083
H         1.35878461503290   -1.05592223053487    0.43110537843442
H         1.11679888655069    0.36687548987115   -0.56738312177556
H         1.44395403457898    0.53554721401894    1.15822438454014
H         2.45066773830254    2.00266093717961   -0.77019186732121
H         4.03334634674326    1.72359529974291   -1.48751191325921
H         2.37153611124150    2.54067816586030    1.55793281420487
H         3.64846042961361    4.53723887329099    1.98715825121565
H         3.07300001115175    3.72782289853398    4.37484008796928
H         4.51687092948324    4.83341142357838    4.20372903316475
H         5.94412257357664    3.03785197144045    4.14949188873157
H         4.76720641972305    1.93401326820312    4.42660326777101
H         6.20006840363758    4.02771136577909    2.10489875277021
H         7.33756771511392    1.88812364775425    0.53795298334480
H         6.31240310903843    1.99101826261308   -0.95754002860818
H         6.54963385068706   -0.33071781643720    0.59742135978905
H         5.52630076371397   -0.13244366457621   -0.84234692758778
H         3.32590374929383   -0.92850745085718    2.34679912635000
H         4.99983333241790   -1.32447219081378    2.29132182301013
H         3.39287974951691   -2.76395882955055    0.39220212171930
H         5.02406936695239   -2.35827338189700    0.21069597754193
