36
 energy: -47.838728649301 gnorm: 0.125402644575 xtb: 6.4.1 (79825abcba525fcdf90b791dcacef51065a7a4e7)
C         1.76293947010653    0.23080813568773    0.57693181782507
C         3.14064614506357    0.32246991995617   -0.11910758864335
C         3.53257932034014    1.71348853684171   -0.58192406206176
C         4.16207772246960    1.91888180773167    0.86394429290864
N         3.21304728315468    2.46452198419160    1.82630113198959
C         3.96645611319228    3.60710854661589    2.42160630069916
C         4.19087352922063    3.09723166996601    3.88408226947459
N         4.90658932648791    1.81925453254135    4.02275830502745
C         5.29630431021487    3.72085246693260    1.71238747806424
C         5.40175046306837    2.65685762071011    0.92864801616524
C         6.44924618514868    1.90153703043349    0.23855632144883
C         5.90682635747228    0.45168092055948    0.26215452831427
C         4.44938752125506    0.42516139402314    0.93325110287481
C         4.22432120084949   -0.93142135812501    1.60211951869535
C         3.86020850940019   -1.75144252243574    0.35388909046931
O         3.43544627046165   -0.92817368088943   -0.76013019392674
H         1.89625073766809    0.52121733725097    1.62467781090917
H         1.37467247290773   -0.78875828098561    0.57767594066395
H         0.93710420130802    0.93108784353490    0.38337525204149
H         2.76398422822983    2.38682925360387   -0.97648760125224
H         4.33505385940754    1.66029810958439   -1.33154614043480
H         2.43560351606401    2.79234253746773    1.24720509683114
H         3.41487747163122    4.54965218004304    2.37407529629620
H         3.22439671701331    2.98060435997689    4.38753390981150
H         4.84248004004752    3.74585021316764    4.48575465911766
H         5.60695623429813    1.82307179489378    3.27962640526014
H         4.31883655087553    1.02578345067981    3.75733749666991
H         6.05808123411352    4.38516549555068    2.08645936052862
H         7.45390343983642    2.02153322073473    0.66115530383813
H         6.53545560359087    2.40487942085883   -0.72997534586793
H         6.56112864669577   -0.20221475085176    0.85701856144313
H         5.82111536253933    0.04097477884743   -0.74885885212782
H         3.32317381982513   -0.82993652566918    2.21307495521997
H         5.08182045751784   -1.28744419310791    2.18962519171688
H         3.08540605172185   -2.47990643791752    0.62702889309033
H         4.79056703203017   -2.23201826151128    0.04419410899723
