36
 energy: -47.853668964572 gnorm: 0.138310806577 xtb: 6.4.1 (79825abcba525fcdf90b791dcacef51065a7a4e7)
C         1.80014114407579   -0.03199294951086    0.38862306379819
C         3.23875687916430    0.10543418032869   -0.16132893930907
C         3.44625573756520    1.54722404181439   -0.58668754270287
C         4.08854180516692    1.83254663105221    0.83986415901750
N         3.32718764050333    2.48898606218933    1.89529771556515
C         4.02420483297279    3.75101207430393    2.28127000827125
C         4.24154478145731    3.73674249337925    3.83102267440217
N         4.68447959855983    2.45536072883020    4.40249029346444
C         5.32281859430241    3.62946332082137    1.51755964975322
C         5.33129622049378    2.56045573674093    0.73359375378640
C         6.35068200938909    1.75827281714033    0.05437481534694
C         5.91175876860551    0.31828908535888    0.41583331153765
C         4.42116910209068    0.35630527056257    1.00904432078161
C         4.18299851168040   -0.99228442574669    1.68943939919558
C         3.96211766205549   -1.90312889704742    0.47097065889632
O         3.61139665418247   -1.16216960192074   -0.72368731561307
H         1.51700867309153    0.67104857729156    1.17947686663645
H         1.52574902550170   -1.02879518307732    0.73699332218242
H         1.14901694621434    0.20404521292597   -0.46588442750838
H         2.52614872682007    2.10869973415172   -0.78150736290130
H         4.19516879068035    1.78216595058780   -1.35653135194626
H         2.34517616186614    2.74876418909951    1.77117609254925
H         3.48168464699254    4.67894844936850    2.08254241789423
H         3.30419215606910    3.86576706717828    4.38407387742111
H         4.98365522708775    4.46635683753193    4.18350207294754
H         5.63359102427574    2.25915432319610    4.08083217216280
H         4.10342754383928    1.70152513167821    4.02884836382490
H         6.02171559612112    4.44846968233576    1.56569770003949
H         7.38988147484335    1.97834912260589    0.32632358830138
H         6.26425705887624    1.95084729124657   -1.02000177986628
H         6.54121396262394   -0.05216369730109    1.23808948095435
H         6.09497671603799   -0.26561407928080   -0.49172512145934
H         3.30907774493335   -1.00187473260959    2.34655652980475
H         5.00358358188258   -1.34227805431880    2.33081671397845
H         3.26584510796314   -2.71300226365480    0.72571283644520
H         4.94384553290373   -2.30206668990963    0.20736098666991
