36
 energy: -47.843181186249 gnorm: 0.143358485013 xtb: 6.4.1 (79825abcba525fcdf90b791dcacef51065a7a4e7)
C         1.77362075020246   -0.02340637282780    0.34596312658927
C         3.19447675467393    0.12440843674885   -0.24587097229711
C         3.45707475082962    1.60628956582953   -0.44032994473499
C         4.10648471157768    1.70999317214338    1.00760043759238
N         3.42806198013168    2.16797594864742    2.21362996057164
C         3.97919116650811    3.53955044388019    2.41992411919147
C         4.00934284283470    3.98044485249397    3.92121577683117
N         4.89110906208382    3.18860947007265    4.79310499032178
C         5.29244196672195    3.51509308336577    1.67212766845809
C         5.36944528356449    2.40776176552309    0.94732459452876
C         6.38689154133082    1.70578596850123    0.16245751472887
C         5.84503184601686    0.25778350155305    0.08161240262161
C         4.44812416688441    0.23243192892528    0.87104782267058
C         4.25938110623170   -1.18616013884475    1.40987002804353
C         3.84710493574839   -1.89458989275773    0.10939023746204
O         3.65484176287743   -0.99875948347699   -1.01299842546350
H         1.45687781718681   -1.06779430919094    0.25210759524207
H         1.08376688942407    0.61916381704415   -0.20310221826875
H         1.80524773152729    0.34467597317371    1.38200120361567
H         2.57249893082095    2.22847416432188   -0.61416477461791
H         4.16542825858161    1.86393445360225   -1.24069383210505
H         2.41277179030089    2.03993965991424    2.21910150987184
H         3.37535353469732    4.30086712311701    1.91926079439175
H         3.00519036271472    3.88234796161023    4.34923181345356
H         4.37405208712022    5.01661927050344    3.89598714580263
H         5.85039916498045    3.29704519772925    4.46027230957030
H         4.70066583072539    2.20978954988237    4.56696160347992
H         6.12871789009963    4.17620448471166    1.83062068634724
H         7.31316430222250    1.57518658796311    0.73454826283903
H         6.66582723944064    2.00885016291898   -0.85203066451748
H         6.58247221451707   -0.49148363741075    0.40462133320076
H         5.69243570241831   -0.01835507403322   -0.96654594724038
H         3.48081785458548   -1.13726218664955    2.17608190141728
H         5.19294098274039   -1.58453738288288    1.83056202927475
H         2.95332256862760   -2.46892906399190    0.38664734002165
H         4.59868387822935   -2.65281301132150   -0.12008268324221
