36
 energy: -47.840671835178 gnorm: 0.157930806839 xtb: 6.4.1 (79825abcba525fcdf90b791dcacef51065a7a4e7)
C         1.84539094432001    0.02130642030492    0.52507401615825
C         3.18584492100875    0.12024372210541   -0.23934942587417
C         3.48451093369213    1.54077787135730   -0.68164465072590
C         4.09873495096701    1.83368929870961    0.75568687182310
N         3.35031519518409    2.45418538385354    1.84167276901369
C         4.02054959749280    3.69484076079008    2.33062811680092
C         4.19938873757953    3.85938111803880    3.87662832549853
N         4.61914986866591    2.64463932394324    4.59280476185392
C         5.38823483266345    3.53554472990822    1.70734071242016
C         5.33483573705125    2.57963542888979    0.79036875692640
C         6.32829774684827    1.75405759732983    0.10084887217997
C         5.88250652438781    0.28585180308451    0.30700642980335
C         4.39565483910110    0.34797828417924    0.90751824959975
C         4.27194213907186   -1.02833377311007    1.56235957178586
C         3.97728702201248   -1.94096941871648    0.36095763345269
O         3.53734465426671   -1.16299704587892   -0.77941216627048
H         1.90808734192790    0.42803603477087    1.54021996776644
H         1.61666202689940   -1.04406170672763    0.57930868008678
H         0.99355421118115    0.54685907646118    0.06897274006905
H         2.50121029448583    1.98126340534193   -0.87887289643627
H         4.17142084706292    1.63154122472717   -1.53525155585535
H         2.32939002996803    2.41357341945084    1.78422820197646
H         3.47667115277678    4.56017852497305    1.94297683461489
H         3.17281510008844    4.06288929585014    4.20201103241286
H         4.90887575146010    4.67786011557745    4.06109252344250
H         5.53505310509417    2.42280490783251    4.19950570008131
H         4.00105262890411    1.91100536777106    4.23891931493667
H         6.16322732341565    4.26104243074207    1.89331233452730
H         7.35305338219792    1.87667079662991    0.47120968538985
H         6.42066123676278    2.08471828765082   -0.93884904858137
H         6.46146531517633   -0.12560810831490    1.14668599434125
H         6.09957729343289   -0.33794129813085   -0.56588330116086
H         3.41241838943663   -0.98462551474587    2.23685265011340
H         5.09366158406774   -1.41524639524153    2.18066049939943
H         3.22926154740296   -2.70484141848591    0.61104036897642
H         4.92214986984508   -2.43221422360140    0.11941306598143
