36
 energy: -47.843166996225 gnorm: 0.125530168514 xtb: 6.4.1 (79825abcba525fcdf90b791dcacef51065a7a4e7)
C         1.83795717858567    0.02323038171808    0.68600096903009
C         3.13468732591965    0.19791405310374   -0.13796819878906
C         3.41631748562410    1.64873473750946   -0.48227548695300
C         4.18759969675392    1.76334258149598    0.90371835467216
N         3.38024886184459    2.34204397979913    1.97039647345876
C         3.88807752914239    3.70622594276781    2.29999448863250
C         4.08233637774417    3.67461124139767    3.85255289391992
N         4.79446038554631    2.51527937573543    4.41249462183396
C         5.25183990606412    3.68553649084660    1.64872693199802
C         5.38843856062748    2.56390564101476    0.95537517892976
C         6.54094759331639    1.77295064258579    0.51937482807642
C         5.91910109586578    0.45888522867713   -0.01297658348550
C         4.53807914232779    0.28624066917955    0.78588154413303
C         4.39170834753686   -1.13227397800384    1.33792200090176
C         3.76071208842514   -1.91581339962717    0.17559598175834
O         3.34798361880795   -1.01295529293159   -0.87974094478939
H         1.14104743765475    0.85354424151158    0.52859440328795
H         1.98693390026034   -0.06649752889741    1.76304432990804
H         1.38100620050555   -0.93352248224243    0.39329027874659
H         2.48424413947304    2.21875875151102   -0.56049652438117
H         4.04851320092350    1.79229226389633   -1.37022130225537
H         2.36308655513532    2.24172950261130    1.91984705708955
H         3.34929347668471    4.58706468100667    1.94121658229054
H         3.12196997211550    3.81289026613035    4.36217843727709
H         4.74626642622544    4.53779686068370    3.99888881716957
H         5.79220251274742    2.59684873435466    4.21092456998320
H         4.60933185186686    1.55892513659679    4.10167009688076
H         6.02842286377707    4.42987104886979    1.71529031971598
H         7.14685289278016    1.53140765036475    1.40077200723260
H         7.18224823122291    2.25756799687493   -0.22407576596551
H         6.54850227686456   -0.43029808523119    0.13789257856276
H         5.65377651812182    0.52787382106081   -1.07270176981421
H         3.65351737533877   -1.13686156058056    2.14457276013491
H         5.34683636589038   -1.60689083357252    1.60190981589681
H         2.92905615286501   -2.54038871453275    0.52750221837310
H         4.52220956431264   -2.56149948409142   -0.26671851236283
