36
 energy: -47.832140235447 gnorm: 0.145717232225 xtb: 6.4.1 (79825abcba525fcdf90b791dcacef51065a7a4e7)
C         2.17344526291512   -0.62959805359346    0.94702153810623
C         3.23915716329805   -0.13681077670627   -0.05914320858144
C         3.16162994919958    1.35033729010632   -0.35090318362998
C         4.01239309571125    1.68486749991201    0.95035840628710
N         3.28512477487571    2.30184367063252    2.05259889363681
C         3.99801391702652    3.54922859213778    2.45674882548299
C         4.57585249917106    3.43206982645642    3.90642119892339
N         3.68581336287660    4.06626122272997    4.89147821412742
C         5.13849842391886    3.63319231183640    1.46848242353471
C         5.10473680880500    2.58358931055246    0.65938089200041
C         6.06326428383896    2.08456045407469   -0.32863654395401
C         5.76584087734360    0.56719610826462   -0.25115264248905
C         4.60692779499717    0.28881691015538    0.82338333665950
C         4.90932170212583   -1.11041229515243    1.36103790136517
C         4.47157141841476   -2.01079917046793    0.19451733158873
O         3.71802789372411   -1.27131165226348   -0.79773462544747
H         1.22074089676539   -0.11004032422553    0.79770550703651
H         2.35533826159486   -0.50316418815885    2.01528975286720
H         1.99653544411183   -1.70833848024149    0.82503056923585
H         2.16709321953662    1.80694721489874   -0.30388518723788
H         3.61994702474345    1.78701032041272   -1.24978586538060
H         2.30482345781892    2.49679272380392    1.83295921687356
H         3.56406957150076    4.55121048900068    2.40564792115143
H         5.58623777453319    3.85564039945947    3.87722393259127
H         4.66407788901673    2.34631154895202    4.05012913127158
H         3.47470375280764    3.35624178597779    5.59438541277454
H         2.82659810761240    4.37338846523076    4.43004578074252
H         5.85101345957980    4.44139194709561    1.49458565087902
H         7.13274486034738    2.24986246862369   -0.15196798214946
H         5.79082157261459    2.66005422788596   -1.21937845244510
H         6.65477133400234    0.00851868685344    0.07631719436513
H         5.38111150061071    0.15052939519455   -1.18739309343555
H         4.34491710366145   -1.36720240400756    2.26167029053685
H         5.97965438009881   -1.31683934266853    1.49886420543627
H         3.85186341477353   -2.87642381648488    0.46329210741316
H         5.35242685106945   -2.44251793944260   -0.28521556149599
