36
 energy: -47.844056063735 gnorm: 0.131736704924 xtb: 6.4.1 (79825abcba525fcdf90b791dcacef51065a7a4e7)
C         1.83679841917618   -0.13809642172901    0.41468121281244
C         3.24989607371317    0.06563454134460   -0.17911788872295
C         3.44530628845877    1.53531824632041   -0.50251917037362
C         4.11954399262262    1.83093299458865    0.90709268379608
N         3.39435762572905    2.57981596075010    1.92581341733581
C         4.12702824601867    3.81810662058438    2.32248362172151
C         4.26997609391381    3.83550454407103    3.88082788282000
N         4.42572214397739    2.52427825879818    4.52977666192393
C         5.41547370529052    3.63980633054815    1.55271571433326
C         5.37125146650262    2.54429928370906    0.80749069317379
C         6.36160721705330    1.78771470908680    0.03888255269571
C         5.87791153848874    0.32729629306230    0.21230559527771
C         4.45727150581425    0.34706525108692    0.95835732308702
C         4.23285686903581   -0.99844267484091    1.64944585761543
C         4.02905644276860   -1.94032336072038    0.45177385053796
O         3.65340779911784   -1.19612539352129   -0.73325402331175
H         1.65329151212231    0.46363083002451    1.31141453559172
H         1.71987030252122   -1.16537165118497    0.76296411900876
H         0.97228486717573    0.00696615085568   -0.24972300103175
H         2.48003386939573    2.01408301265324   -0.69959805884023
H         4.07753775761613    1.71292251550268   -1.38426065883240
H         2.43496344119499    2.75240258580623    1.61434263297788
H         3.61265995512574    4.75123466387859    2.07838519062645
H         3.36003842986581    4.25865840370278    4.32139249561292
H         5.08654020341048    4.54285895160407    4.08127620297687
H         5.09016104174926    2.01737149155140    3.94297185704751
H         3.50476268419043    2.09102929874987    4.43165989040630
H         6.24968532610760    4.27362389923692    1.80552390751385
H         7.44592951166951    1.87463980790609    0.17677542173413
H         6.15811011956303    2.12840692519879   -0.98158646228596
H         6.70127032470517   -0.26397995183751    0.63895185932804
H         5.66772615903395   -0.11361895966696   -0.76728098817344
H         3.33314408414236   -0.91621091478667    2.26539004867458
H         5.06315663099811   -1.48195029183438    2.18240265602154
H         3.18976441190240   -2.59549220018183    0.71996519003118
H         4.88478250336133   -2.57581792661449    0.21447529300219
