36
 energy: -47.848474976106 gnorm: 0.141227548454 xtb: 6.4.1 (79825abcba525fcdf90b791dcacef51065a7a4e7)
C         1.81448773900564    0.13663731313738    0.55850119902968
C         3.17336011930119    0.13149571208747   -0.17932538910048
C         3.38555059715889    1.59742798624901   -0.50911547314546
C         4.11228376963559    1.81610737393511    0.88839244729053
N         3.38025888419852    2.46823875602855    1.96699207175726
C         4.03711868704948    3.72873613391720    2.42218304037984
C         4.11848502385739    3.65729898063782    3.98341648742520
N         4.69972611297017    2.41041525493245    4.50509214929104
C         5.34146422634623    3.54124559324595    1.68194297829366
C         5.36632906885245    2.52955765650214    0.82560139597339
C         6.36426810617930    1.83534569732267    0.00940861541879
C         5.87015471142795    0.37252259062853    0.12280847290380
C         4.45936892879868    0.33351502286876    0.88659115164205
C         4.31806292090946   -1.05480434946376    1.51185814873857
C         4.06271262875746   -1.89099856354773    0.24747389630605
O         3.48598949139577   -1.11060910126545   -0.82845188587483
H         1.01535495881074    0.32850369337541   -0.16569160161694
H         1.68203986649234    0.90055717864818    1.32606329111212
H         1.55553910761202   -0.86587748237548    0.92967431225494
H         2.46054313810674    2.16114278975348   -0.67157610935991
H         4.01043644760879    1.86408122631230   -1.37348905519410
H         2.36750184435382    2.36248020483713    2.06885335570251
H         3.43014356495161    4.56182286155413    2.05826760984543
H         3.09826185200181    3.74258134946073    4.37458719174700
H         4.75773940681318    4.41073559480443    4.46403467253126
H         5.71805293128502    2.45407643707112    4.44282183274745
H         4.45831147510232    1.59971276655891    3.93065473850261
H         6.11544099261852    4.24886510058664    1.93049946415592
H         7.38171704241087    1.91253181782169    0.41086249030752
H         6.34827554760156    2.22343391373493   -1.01429595764512
H         6.57132712832359   -0.26687543062681    0.67875966884869
H         5.71374963606766   -0.06628032897875   -0.86772849383455
H         3.40208836123797   -1.06356688847385    2.10897306964215
H         5.16823062655829   -1.54266988941857    2.00826760770742
H         3.29465496146842   -2.65471477429153    0.42749857462551
H         5.00783667931143   -2.32581255527879   -0.08435189990990
