36
 energy: -47.847117997323 gnorm: 0.141355547595 xtb: 6.4.1 (79825abcba525fcdf90b791dcacef51065a7a4e7)
C         1.82324727696739    0.01426089845810    0.65722112878803
C         3.14786202936231    0.14061787767089   -0.13041986222498
C         3.41179502567909    1.59821175894297   -0.45981807843330
C         4.18010073131471    1.79179894208460    0.91902944814027
N         3.33242623119673    2.43600257632455    1.91450044580679
C         3.97298081484066    3.76179988149583    2.15836220432878
C         3.98224410215406    3.84243482633975    3.72123961159927
N         4.61927915755732    2.71097396066617    4.41311269487029
C         5.39032663655385    3.53504909017190    1.68492770911048
C         5.47278141658845    2.43492579154650    0.94982120455583
C         6.49322759406793    1.62480161727926    0.28171070346445
C         5.82786826160290    0.25836620855806   -0.01326429325413
C         4.48982046504737    0.30170707566377    0.87158131614484
C         4.37851814870122   -1.03294175664269    1.60960648863394
C         4.02848502317779   -1.87554707207461    0.37243828578716
O         3.53861406813088   -1.09621381380435   -0.74644495143167
H         1.86835712785966    0.56110539940282    1.60527561825735
H         1.59114281303580   -1.03906850996667    0.82120966422909
H         0.98941907594993    0.44005542884060    0.07990896113730
H         2.55886783352739    2.21991538080413   -0.75274546605461
H         4.01389188684629    1.66834622479934   -1.37703587750020
H         2.40889141652823    2.57973995809126    1.49777464394683
H         3.37728211594350    4.59550317351426    1.77761477077080
H         2.93644894571837    3.90998766959509    4.04200747164772
H         4.45205012006547    4.76589724377928    4.08703490698514
H         5.56483622868633    2.59772938788737    4.04450600698172
H         4.13035503474054    1.81606069137079    4.33840438121062
H         6.22481853613659    4.19615455208768    1.85258378404382
H         7.46775797996071    1.57944275257860    0.78226874887898
H         6.67389097101385    2.17176063580823   -0.64943689250093
H         6.32510002169560   -0.64922442467988    0.35901804115520
H         5.62898097243892    0.06545313346498   -1.07222719522288
H         3.55064203077414   -0.99164409465519    2.32273203034299
H         5.21450825777396   -1.42986261318423    2.20188567377017
H         3.33861734628624   -2.69091416764152    0.62708117986687
H         4.95278564464954   -2.36215291834037    0.05413945294648
