36
 energy: -47.838339442404 gnorm: 0.139790837093 xtb: 6.4.1 (79825abcba525fcdf90b791dcacef51065a7a4e7)
C         1.77539735577173    0.10675662321334    0.40954882677076
C         3.19948730150395    0.16553238345855   -0.19000253418945
C         3.48196525283232    1.60005784176958   -0.59631101333697
C         4.17977128542353    1.83789851458746    0.81276260539133
N         3.28799136370629    2.36907045218282    1.83604045380899
C         3.94339450041933    3.60931370319995    2.34570751588960
C         4.07903082100203    3.64636617917483    3.90436187194384
N         4.83183188027125    2.52312570924418    4.48429901836677
C         5.32682407334110    3.56037087811030    1.73895190043808
C         5.45838666779155    2.49160136246523    0.96572854944911
C         6.42274866684274    1.74112107783247    0.15902650013801
C         5.87604530966690    0.29502726847679    0.07664319502802
C         4.48671051999785    0.34790358262840    0.87798884771723
C         4.34154161020323   -0.97934670057066    1.62343452371336
C         3.86635657977800   -1.85159415482670    0.45020157007897
O         3.54335147824089   -1.11031539484529   -0.75204925717789
H         1.37406170510810   -0.91043523558820    0.34527187906671
H         1.08587987904335    0.71459961255075   -0.17812463790316
H         1.68453391905155    0.60056358753438    1.38820008880319
H         2.59781453284655    2.21503587086554   -0.79602604042434
H         4.28014668872437    1.81398961964363   -1.32147822813994
H         2.36476272274331    2.43600610870834    1.39968529961209
H         3.59360357508514    4.57918889619489    1.98256143890436
H         3.09487029178602    3.57410638026072    4.38117364591115
H         4.53179490792817    4.60993785410751    4.17609890360491
H         5.64742405835228    2.40664052651779    3.88096329513150
H         4.22200712531478    1.70809865230161    4.38764215828090
H         5.95003132871329    4.31365531349943    2.19251650854050
H         7.46495998229126    1.70155428403853    0.49748653555673
H         6.42991712261940    2.34805497878168   -0.75224681446530
H         6.59721744042836   -0.35638277679366    0.59155092768503
H         5.67621913846150   -0.14371168921894   -0.90608342047632
H         3.56623046910003   -0.92986259567349    2.39289946141339
H         5.28042804530301   -1.29464202611654    2.09914588219044
H         3.02842518729952   -2.42331709191857    0.87042503549699
H         4.67589954649057   -2.53727422435067    0.19152407821298
