36
 energy: -47.844368080741 gnorm: 0.135340529418 xtb: 6.4.1 (79825abcba525fcdf90b791dcacef51065a7a4e7)
C         1.78023952887670    0.09576043617360    0.46308787247912
C         3.22148211027371    0.15612239017670   -0.09380071734273
C         3.53587320903562    1.56207509978950   -0.57045460342786
C         4.10592021362010    1.86162154254071    0.88361157754011
N         3.18546467578977    2.59314014992773    1.74509576870261
C         3.95367276484821    3.73550179903027    2.32162280724389
C         4.23997307190877    3.47042389268079    3.83718852058558
N         4.83367047243373    2.18172633053132    4.22640273755870
C         5.29249391142939    3.69425655743013    1.62142135714876
C         5.35027719801803    2.59453302131027    0.88336930175125
C         6.40138485750632    1.86421833664228    0.17217570677239
C         5.89940830175473    0.40798401958751    0.32793241112360
C         4.45506064682792    0.38645645908055    1.02693062018515
C         4.29210892580626   -0.99628969794422    1.65924120668760
C         3.86467100720532   -1.88708733786542    0.48158740555655
O         3.61680809742139   -1.08459183133762   -0.69900503830754
H         1.65199119011980   -0.80266219451533    1.07649659371244
H         1.10705484000143   -0.14375177765134   -0.36136578613796
H         1.45396755058832    0.99631169533141    1.00384087797770
H         2.62261906697223    2.14195092301755   -0.74226123974137
H         4.30770883917959    1.73445842004862   -1.33418341686331
H         2.32973534586429    2.81204352556248    1.22833081630775
H         3.44271009368775    4.69684890509141    2.22356359238553
H         3.28636948803703    3.57513767994401    4.36711129158023
H         4.92380930044019    4.22703613495478    4.24610496179716
H         5.65920503819995    1.89648118394151    3.69734575927100
H         4.08837760607019    1.52972892342253    3.97157767468057
H         6.04453790353960    4.46592107584058    1.59885124370877
H         7.38715650472767    2.19334027241798    0.52183018196939
H         6.31864232842935    2.04539432568381   -0.90447103118887
H         6.50287181726125   -0.13934644968688    1.06672565060348
H         5.92386078241872   -0.17075457152737   -0.60085052897064
H         3.56094403864190   -1.01873893076811    2.47196892859463
H         5.14797969418106   -1.44556284374939    2.18160040339363
H         2.91836604694632   -2.42041372001182    0.64175547720032
H         4.66248533539161   -2.56436566275476    0.16979034292234
