36
 energy: -47.835686863492 gnorm: 0.138984308302 xtb: 6.4.1 (79825abcba525fcdf90b791dcacef51065a7a4e7)
C         1.69696490680816   -0.06599306983047    0.33868108688118
C         3.13923658661587    0.11009649738102   -0.19027395115734
C         3.45251077650858    1.55995999986122   -0.51042820014243
C         4.13813667712202    1.80238501338908    0.90383384559404
N         3.26494183935509    2.34030816549315    1.93953749100075
C         3.93323382927345    3.62075649964730    2.31550955488554
C         4.14565130200804    3.85984383557955    3.84746568037425
N         4.97823546485742    2.85757448834803    4.53081438506958
C         5.33195970999745    3.56303347459028    1.74572088775797
C         5.37868971662500    2.54171400278167    0.90181674983150
C         6.37555816150689    1.72377261053566    0.20812510255349
C         5.80356751654227    0.29955458005463    0.00492920959554
C         4.44238879921847    0.31121900506564    0.85478704204957
C         4.32843933463229   -1.01044813394144    1.61542364013792
C         4.01942888346204   -1.91185249300176    0.40915886631071
O         3.60989563629211   -1.13016506574169   -0.73996289599146
H         0.98773504541390   -0.25329648243079   -0.47482462033403
H         1.42560999006121    0.81828041273094    0.91720892534937
H         1.58398760119055   -1.05722278364018    0.80188682051636
H         2.53788580349617    2.16256699684432   -0.49891598616588
H         4.14387931132031    1.65010524330886   -1.36049364972704
H         2.38431119411024    2.62660362510013    1.50392079485733
H         3.36685279461259    4.46998553311102    1.92447345760269
H         3.16845893454830    3.96480160603533    4.33246242176190
H         4.66655306160515    4.82031171727840    3.96352391581438
H         5.62130887361996    2.42086871362986    3.86860743029370
H         4.43380944599061    2.05099369642169    4.84470229483553
H         6.14784054423522    4.20030432353399    2.04533716827051
H         7.32112345934124    1.72555201426283    0.76330819093168
H         6.60731231205514    2.17407046067051   -0.76262772520468
H         6.46618303897905   -0.33684676835593    0.60948545779078
H         5.55021495768214   -0.10541417846130   -0.97994984396364
H         3.53360711038147   -0.91365817608037    2.36007507786031
H         5.20675784628337   -1.40929832069802    2.14144196274197
H         3.15680170733823   -2.57875060405772    0.53840728563072
H         4.89423928340268   -2.49382190017616    0.11175445443149
