36
 energy: -47.844974476166 gnorm: 0.133012372476 xtb: 6.4.1 (79825abcba525fcdf90b791dcacef51065a7a4e7)
C         1.72644902010395   -0.00890354688661    0.36186141925433
C         3.17908381583109    0.05473924092137   -0.16420924603417
C         3.52281138027422    1.48382937359572   -0.54143122971799
C         4.08571853571281    1.67863772793168    0.93307721863042
N         3.29761360137539    2.32018436415139    1.97797966260589
C         3.91808712008781    3.64343450471564    2.28053343381279
C         3.90066295194045    3.97684871706060    3.80948891177460
N         5.04191021475633    3.49349069995453    4.60234791043235
C         5.28190769525934    3.47268407989202    1.65183407061115
C         5.32882556415479    2.41008057087002    0.86055417668582
C         6.37368572638817    1.61235504921211    0.21566334951025
C         5.85683985636799    0.15302090293910    0.22421193829870
C         4.42829882597447    0.19514558166242    0.95407353703864
C         4.24729758612689   -1.18803677576979    1.58049328130289
C         4.08530445500232   -1.97682268213080    0.27104033343881
O         3.53695358238142   -1.17860543323170   -0.80663962507550
H         1.10932276951405   -0.63811696597392   -0.28862053504514
H         1.22142316561934    0.95790614061689    0.38412047048003
H         1.61332908203339   -0.26459732640968    1.42566795539230
H         2.73170464079575    2.20670615319093   -0.76815983067215
H         4.31997012755681    1.60561719930008   -1.28871534910474
H         2.28150279463942    2.42815490139117    1.92231544794401
H         3.37111700960362    4.42031873293708    1.74001400902939
H         3.01317550880838    3.54800555582606    4.28865743471893
H         3.93267556762441    5.07447887420035    3.84808860843690
H         5.96182644287750    3.77938763031123    4.26354048664298
H         5.02702252880710    2.47723796649747    4.49051489951007
H         6.05391832113427    4.16409683587248    1.94762721972793
H         7.34460467916507    1.69606910908131    0.71828996083553
H         6.58183015664576    1.97410268494504   -0.79658846754598
H         6.51832312275588   -0.49074237852207    0.82217764770328
H         5.83554122549878   -0.28353874948263   -0.77934972567440
H         3.37808587894475   -1.23748469945979    2.24205071923999
H         5.22228251002914   -1.46653292517312    2.00365339081804
H         3.42186442171012   -2.81716691980333    0.51445927723804
H         4.97238960173557   -2.46682297130205   -0.13566677993883
