36
 energy: -47.837949220360 gnorm: 0.122693835877 xtb: 6.4.1 (79825abcba525fcdf90b791dcacef51065a7a4e7)
C         1.72319645999122   -0.04174099701138    0.49376557196238
C         3.16525789063112    0.04725915371333   -0.05713048230979
C         3.41564028554821    1.49904472137744   -0.42095879655141
C         4.18096918512540    1.65094125358430    0.96475013754919
N         3.47224915219846    2.27633438046301    2.07430510866884
C         4.01397659091104    3.65962129879086    2.21771331549958
C         4.06045307522994    4.11871816642392    3.71312081896917
N         4.50454607014227    2.99952769154667    4.55863829839353
C         5.33300039660747    3.63795838562057    1.48006012942507
C         5.35966653663606    2.47627085837349    0.84192016930045
C         6.48026749865300    1.78066668379216    0.20601805611488
C         5.97921906352627    0.31848930556520    0.11743596359109
C         4.56602048111553    0.18111701809522    0.86523320852848
C         4.39526475599817   -1.18991831616955    1.52056629944376
C         3.86981205398649   -2.05053441818104    0.36025105740383
O         3.52797321989540   -1.16560511921081   -0.73486534098792
H         1.26774123682914   -1.01487894395948    0.28058912257300
H         1.12402616297809    0.71393327397706   -0.01635099801592
H         1.76013892716170    0.16074560613355    1.57427203592425
H         2.50489450630708    2.05145490069060   -0.67628555200899
H         4.09031787125388    1.66610807021349   -1.27279677821821
H         2.47186736277579    2.40075246160012    1.89825454106620
H         3.44235653213147    4.48388825945978    1.78329277864367
H         3.06932534292673    4.44250049859286    4.05072078451176
H         4.79278685555266    4.93153577595021    3.81471558714183
H         5.51108471362740    2.83758978466879    4.50007660301627
H         3.96762378284450    2.18122495946057    4.26267717859126
H         6.10620985710045    4.38847519036904    1.50048963259794
H         7.31975945648403    1.76774635518085    0.91129215293824
H         6.69609705327526    2.33400042498669   -0.71380727764240
H         6.78928950085888   -0.32958457750045    0.48259407934372
H         5.74172985344903   -0.00630524006071   -0.90054311564805
H         3.71133272619793   -1.24861708013436    2.37169721897119
H         5.36021149070703   -1.56496993824315    1.88858033788351
H         3.02023872201034   -2.67536991772385    0.66584829280994
H         4.64600918835134   -2.76610377522565    0.08112824999528
