36
 energy: -47.843838867915 gnorm: 0.124175158639 xtb: 6.4.1 (79825abcba525fcdf90b791dcacef51065a7a4e7)
C         1.80550432843765   -0.00242791902438    0.36118290411705
C         3.24524125605947    0.08157053095823   -0.19653604917226
C         3.52131432218399    1.54020549008917   -0.51103783712605
C         4.14889309933669    1.74847989595351    0.93525278158949
N         3.34102307554639    2.34194806664294    1.99338988066969
C         3.90924002869861    3.70585469818355    2.20411551134273
C         4.25940033878118    3.85550146086154    3.72206382901337
N         4.60974188589818    2.64414689968738    4.48007873999164
C         5.17523772561963    3.72573432490270    1.37871877075333
C         5.35695550670743    2.53274336422173    0.82989952303435
C         6.40400573017958    1.75548375122936    0.16391435762379
C         5.91392998742759    0.28693861495811    0.15618057290084
C         4.49804278160921    0.26656666097164    0.91119731949669
C         4.30753066942418   -1.01231059869702    1.72761304297952
C         3.91863650300379   -1.93045570921882    0.55762890771968
O         3.70906780911642   -1.19184366162146   -0.67109675401978
H         1.32166369855274   -0.98451627924040    0.39698517711047
H         1.10533828162478    0.60032868369456   -0.21909249135423
H         1.76742644806445    0.41744748486408    1.37711326350284
H         2.71119512804464    2.22660097846542   -0.78006327595391
H         4.27893500482314    1.72781278960087   -1.28533900338561
H         2.31782850223032    2.35186800110478    2.00794186893247
H         3.23487837779956    4.53648363975224    1.98010977017289
H         3.37912398690810    4.27705759762557    4.22060857230382
H         5.07696901791527    4.57957902904744    3.84289359472599
H         5.39081635151819    2.13562752310387    4.06282088805719
H         3.79560973641372    2.05246491960191    4.29952636151677
H         5.89658287903501    4.52471624972078    1.32547745512332
H         7.29688169185053    1.86939674306709    0.79011042386785
H         6.68024739763600    2.24844253159776   -0.77391364788247
H         6.56376552091688   -0.32000265109477    0.80339795429151
H         5.75964172849133   -0.22155710743274   -0.80079445223562
H         3.52448260065325   -1.11809672860585    2.48344194398568
H         5.27333099581229   -1.27673681300352    2.17986151523533
H         2.98444641251018   -2.45348986954350    0.80116132155099
H         4.63732302019444   -2.69890496908710    0.26538510600792
