36
 energy: -47.846440060855 gnorm: 0.129912698593 xtb: 6.4.1 (79825abcba525fcdf90b791dcacef51065a7a4e7)
C         1.74231094227781    0.05895997529316    0.59627092583270
C         3.13115891724709    0.15565541328125   -0.07655884357568
C         3.44715541378482    1.56700457273409   -0.53588818040801
C         4.11678843081357    1.83429116601927    0.88155298236887
N         3.25358331514707    2.56300221975188    1.80262287702940
C         4.02592170667140    3.73610512257869    2.30743979020315
C         4.10756199469032    3.55579718782630    3.85985643177072
N         4.53254594136516    2.25435880608884    4.39870007442748
C         5.40148799095021    3.56133315244095    1.70602700441458
C         5.39212857340115    2.51169257077045    0.89632430768534
C         6.37337244073287    1.79677111549556    0.07777023827098
C         5.76840772934161    0.37207302613544    0.11111627182723
C         4.42262979458341    0.34622487234371    0.98485282682810
C         4.36733246090881   -1.01011495203254    1.68887063198870
C         4.16974914450988   -1.82023342600643    0.39745245740659
O         3.61912975313941   -1.04465086486305   -0.69549014334226
H         1.50711803795729   -0.96262380646017    0.91396887116104
H         1.09125491195099    0.26014596099491   -0.25573717234835
H         1.64722809958282    0.81066553214058    1.39361513416522
H         2.64461973069132    2.28509433952137   -0.73611339908274
H         4.20864450119181    1.64405305163678   -1.32514466889520
H         2.38468021402365    2.84070027301435    1.33880338087272
H         3.62312080383953    4.74579508640750    2.19270413843559
H         3.16389901243318    3.83964354152173    4.33951706296606
H         4.85969491056531    4.30220592737172    4.15050532907832
H         5.33995254343281    1.96345597692738    3.84530734117141
H         3.84448084754113    1.53185997124525    4.17495972372351
H         6.23455016363459    4.23524778142231    1.82175124759673
H         7.37964426589286    1.91341037824962    0.49745758994752
H         6.48131733051220    2.15908617235393   -0.94980696406071
H         6.58902029275942   -0.30784222210355    0.38289659943472
H         5.47907636102793    0.11846585652697   -0.91364943350756
H         3.50891070852615   -1.14926281626056    2.35172982284490
H         5.32501050795325   -1.29808696236954    2.14400255330348
H         3.45145649727949   -2.62695273196866    0.59454008551018
H         5.16282139629645   -2.16376271762307    0.10042358812403
