36
 energy: -47.835628243448 gnorm: 0.147266521226 xtb: 6.4.1 (79825abcba525fcdf90b791dcacef51065a7a4e7)
C         1.88820437567375    0.08177598533783    0.47882167453225
C         3.25646493257110    0.06145859499936   -0.24117756536083
C         3.51108551472386    1.52724607517650   -0.54014102026188
C         4.10767391669655    1.69071294758518    0.92490197884575
N         3.33333005601138    2.37791079901158    1.95089593911513
C         3.97441162927458    3.68110925509984    2.29470612337827
C         3.97910832990447    3.80192795197073    3.85501199068710
N         4.76011257461739    2.88742888574858    4.70261422976528
C         5.30035578229403    3.59115514170206    1.57484107797605
C         5.31672819050374    2.47748243504574    0.85587190890313
C         6.44453599801082    1.78364785571348    0.23087084754366
C         5.92861680132877    0.34102831705547    0.00830566131654
C         4.54905382705698    0.23708544454744    0.82145016394684
C         4.33690466607040   -1.12163475207795    1.49020201254964
C         3.83694775048032   -2.02479137426857    0.35114833412955
O         3.49424719708080   -1.23388243958894   -0.81343441021649
H         1.72549089727212    1.08090469211985    0.89732767398242
H         1.77063064740668   -0.55307323261985    1.35825925238193
H         1.13721137398332   -0.14276931795724   -0.29283155433674
H         2.65800672641552    2.19205625209550   -0.71360754626815
H         4.30632216991803    1.66594170357319   -1.28652573182828
H         2.37878232853344    2.65954071119389    1.71265105595511
H         3.32150732077220    4.48394934015127    1.94249810644894
H         2.93706880950765    3.95696489724486    4.15710486578666
H         4.33044400262569    4.80148939787795    4.14612518815518
H         5.74070471258689    2.91680478018256    4.41915432758225
H         4.43022886821341    1.93227656072130    4.54654159588691
H         6.14082316571022    4.20883330280169    1.84619690446607
H         7.31019934796219    1.78216617511151    0.90388645742755
H         6.80167112274046    2.12334417241622   -0.74683063819470
H         6.50853288669972   -0.48034708264210    0.45394464667360
H         5.72160158120237    0.10192297934136   -1.03961960777078
H         3.57365659446043   -1.00150984260134    2.26392986488371
H         5.22054003422816   -1.51538974919671    2.01112983593588
H         2.88671486450134   -2.47316857498982    0.66989473238770
H         4.55760138966080   -2.79690644849651    0.07378992838044
