36
 energy: -47.845277913878 gnorm: 0.130839266207 xtb: 6.4.1 (79825abcba525fcdf90b791dcacef51065a7a4e7)
C         1.80682992583639   -0.15111072290431    0.36239648192341
C         3.26288139484413    0.06894759290694   -0.10923591097149
C         3.46072345869583    1.53059459746439   -0.46587337302805
C         4.13272757771455    1.78224154556531    0.95330752698568
N         3.33542194738688    2.50194791532221    1.93861934820776
C         3.96752320166113    3.81569398764237    2.25805089009689
C         4.34783703153566    3.92549866379595    3.77214399414128
N         4.50226931601780    2.61206208534743    4.41692360138858
C         5.28447897218154    3.70124415511260    1.52527940573538
C         5.36368745763038    2.53548505177159    0.89903396083424
C         6.39091585735062    1.78368083005084    0.17544883326033
C         5.88061312699535    0.32206225324100    0.16443613300818
C         4.50847430113030    0.30728187421618    0.99643294132593
C         4.24047957365631   -1.03247550868206    1.68315404401653
C         3.99377276204443   -1.98857204605799    0.50497441268941
O         3.70039004860655   -1.18191700495620   -0.66227355076506
H         1.46713749391679   -1.19231221129897    0.38213564606662
H         1.08488590954091    0.31462961267378   -0.31002477074757
H         1.56396025365034    0.26393036648525    1.35164620083617
H         2.51776888943164    1.99252582702644   -0.77774330740309
H         4.21797342612699    1.79827934224047   -1.21663653260983
H         2.33434034816144    2.51982907683584    1.72706959952907
H         3.39191926295726    4.67094152218220    1.89456982244689
H         3.54785379762804    4.48228850936981    4.27329747477860
H         5.29213641634844    4.48349964802771    3.83726160685542
H         5.34821495180708    2.24309016139936    3.97987772444056
H         3.71692458145457    2.01689266498313    4.14396774770398
H         5.99948610055228    4.50706734990312    1.55625527778293
H         7.40055666037720    1.94481409623946    0.57166439383473
H         6.51206024413771    2.17728138491514   -0.83906677450132
H         6.48023555875173   -0.48196950142960    0.61559042808966
H         5.58984892036753   -0.11027010778776   -0.79822628901468
H         3.31737044015184   -0.95274676595075    2.26379615577819
H         4.95725845197248   -1.56948857485393    2.31960143273774
H         3.23965159619891   -2.75874060764799    0.71408102193767
H         4.91604847265415   -2.50283060531200    0.22680775953647
