36
 energy: -47.843671179187 gnorm: 0.132549001936 xtb: 6.4.1 (79825abcba525fcdf90b791dcacef51065a7a4e7)
C         1.74555916773745   -0.06164922977549    0.33112202511195
C         3.19374093215921    0.17041578155070   -0.15863716545666
C         3.37787990387797    1.65620301805689   -0.40617070977428
C         4.10143349243106    1.76329612055361    1.00591690521050
N         3.31846353731626    2.36651372185929    2.07717760424645
C         3.94096510307620    3.69756989177996    2.33851744986150
C         4.23076257530521    3.85050214144977    3.86881243994047
N         4.70049414113199    2.60186601045442    4.48926855156409
C         5.29970452275510    3.55887438747924    1.69120294162685
C         5.36141786327082    2.46619948822344    0.94306881119498
C         6.43553165778881    1.74640663204371    0.25592906164981
C         5.86617090595557    0.32394068974374    0.03394257622628
C         4.50639738953659    0.30037853714881    0.88580107822887
C         4.36283681596619   -1.09054830779779    1.50472736096361
C         3.99598805633510   -1.88891429958807    0.24332900799393
O         3.49410120631062   -1.06054827535934   -0.83423904030817
H         1.76511443695691   -0.63859424752746    1.26205336489325
H         1.21924391004125   -0.53650627665295   -0.49819733288647
H         1.14228122780302    0.84691073603665    0.47407063771216
H         2.37143395869964    2.08406874843434   -0.46784818854079
H         3.96024876504122    1.96333821106540   -1.28664924406200
H         2.31954714119802    2.46497613628798    1.87790747616207
H         3.33808023423642    4.54699625218171    2.00701869863897
H         3.34404300019111    4.21976559767453    4.39655841582572
H         5.03705826184433    4.57961194152493    4.02879023847409
H         5.71859861686749    2.52510031654641    4.50780780500695
H         4.37406052622513    1.78512181903460    3.96785900962272
H         6.05591862179416    4.27950886754780    1.95647999116420
H         7.37830955366105    1.61720831531402    0.80072525231613
H         6.70575547376183    2.33587653975964   -0.62630877544350
H         6.52602987848597   -0.46090566169270    0.43163172990710
H         5.55082699639304    0.01493862136086   -0.96768109349526
H         3.55537788237196   -1.03101708409000    2.23964130513344
H         5.29965233262874   -1.34274175816690    2.02047478220603
H         3.23441975696037   -2.64821178425871    0.46483515161694
H         4.85828576192402   -2.41025911417794   -0.17747176340271
