36
 energy: -47.843968999826 gnorm: 0.128093470244 xtb: 6.4.1 (79825abcba525fcdf90b791dcacef51065a7a4e7)
C         1.84198816701621    0.17153573777979    0.69675809885226
C         3.17871207544112    0.12696348177202   -0.07921298117631
C         3.56211893022957    1.48459753607197   -0.63829493901917
C         4.17108650859328    1.77051740147020    0.80267632837219
N         3.32233490199874    2.45250537548716    1.77170969907467
C         3.99882077877171    3.73054606773057    2.14116326758231
C         3.93842823079864    3.73085145156590    3.70498107353960
N         4.55621629015466    2.62144635926540    4.44812569531479
C         5.35473456613670    3.63093491912557    1.48085988762737
C         5.44440555583752    2.44576628456073    0.89367528277809
C         6.47440551194247    1.74075077320674    0.12814531214159
C         5.94711736025158    0.28529557060296    0.10632255840164
C         4.54532182105203    0.29697542556003    0.88736976926399
C         4.37988975750936   -1.00012170608063    1.68016722514328
C         3.92523112995402   -1.92797861100309    0.54198486680219
O         3.44434904731403   -1.18302725774318   -0.60389184952704
H         1.41788238757852   -0.82987021489645    0.56560353988300
H         1.14921911005395    0.95698428405248    0.39112896393302
H         2.03862713184366    0.39540077430124    1.75556749724279
H         2.67511165887525    2.08577651517442   -0.86546997107390
H         4.32091471994835    1.46737367523495   -1.43369432152863
H         2.33176222725926    2.52316450062396    1.52470692446959
H         3.34182168785755    4.56306183712181    1.87629286629125
H         2.85523599231494    3.60855599619309    3.81847684545847
H         4.37193073470010    4.64006854029766    4.14396463296960
H         5.54351213292380    2.62516371416423    4.18734515093430
H         4.11066842070189    1.71481081181996    4.29002142043068
H         6.14417098745191    4.28944712524754    1.80442963937765
H         7.40632928551994    1.86823875345597    0.69169660265281
H         6.53769207559837    2.21663713659491   -0.85591066853326
H         6.55496251040542   -0.42801053563770    0.68188570272038
H         5.70972766964703    0.01174875570950   -0.92663061057075
H         3.66893732780177   -0.87869021508239    2.50201475244417
H         5.32455621129547   -1.35109854432904    2.11793510768518
H         3.14903511820661   -2.63556829417873    0.86201687035805
H         4.76030921114384   -2.50965188957184    0.14609118294893
