36
 energy: -47.839856792276 gnorm: 0.132736797805 xtb: 6.4.1 (79825abcba525fcdf90b791dcacef51065a7a4e7)
C         1.75411371681478    0.03823947285213    0.70914715446403
C         3.12375472740087    0.07312754515716   -0.00766163412629
C         3.31796453764807    1.50606371563849   -0.46779215153045
C         4.14888254021249    1.83243982682743    0.84827923406963
N         3.33660479132092    2.44396790351119    1.89266943689287
C         4.03213913429086    3.69833281751911    2.30536521926942
C         4.25807975680692    3.65988318889932    3.85347568771181
N         4.25730224586842    2.36457854245320    4.55125142442625
C         5.29774852270557    3.68857795111696    1.47919153205702
C         5.40493673743666    2.54448068711774    0.81812904036170
C         6.37186020151941    1.80157871102057    0.00748811195248
C         5.80797042223883    0.36532904674777   -0.11929569355335
C         4.53655223378677    0.35998265170648    0.85982080420030
C         4.54062685570576   -0.95595360574060    1.63869929106260
C         4.23784038923124   -1.82474470755243    0.40719031347947
O         3.52609886809434   -1.14369127741099   -0.65527086867738
H         1.67265695320079   -0.74172906329570    1.47393141389942
H         0.99399459528593   -0.28322256983555   -0.00439934688661
H         1.55628675354277    0.99936466083804    1.20610049206447
H         2.37408101908922    2.06174943032555   -0.45760157678411
H         3.82220831529190    1.66033987060872   -1.43250192972332
H         2.41109658632726    2.69375038706101    1.53450659807616
H         3.47102093699852    4.61576530326520    2.10953188811928
H         3.41148942623109    4.16888913788670    4.32817629612698
H         5.17526408082487    4.14526785223422    4.21469773754784
H         5.12324331420336    1.85036018813814    4.38243510837194
H         3.52898391527653    1.78578526419931    4.12693003830107
H         6.14311288760082    4.33761744205419    1.63935546721773
H         7.31458359170696    1.91645072328081    0.55557772661464
H         6.50320045978459    2.31277590626027   -0.95181704782944
H         6.62662842333734   -0.33079788421312    0.11471421166158
H         5.52396728845872    0.19935782699321   -1.16331185877883
H         3.80413900916495   -1.16504251238947    2.41940398032384
H         5.53291939758538   -1.09760084312215    2.08871235063103
H         3.71934760702910   -2.76786859391190    0.62459881451818
H         5.16310988172843   -2.15856057788485   -0.06701886143515
