36
 energy: -47.842583738866 gnorm: 0.144036736706 xtb: 6.4.1 (79825abcba525fcdf90b791dcacef51065a7a4e7)
C         1.81436387115694    0.08561805158531    0.54402019988608
C         3.21712917586351    0.23454687174767   -0.08923990154496
C         3.49486767147565    1.63462973583449   -0.60438359009884
C         4.13368718930015    1.94919271828696    0.81756926029056
N         3.22720689630632    2.59040885028189    1.76184053705388
C         4.02873554831175    3.68380609412204    2.38598116232057
C         4.17226711643098    3.34316779571911    3.90668423688414
N         4.48702469154061    1.91436988617273    4.06215101687605
C         5.37900109803859    3.61448948097250    1.71040475973802
C         5.42335635135824    2.59761286541954    0.86102487037714
C         6.43552560194530    1.88620311840898    0.07783089884010
C         5.85263315964648    0.45399881480194    0.00110902544391
C         4.53854786566028    0.48501932931966    0.92166302128841
C         4.34637360054163   -0.77483122229039    1.76676804182108
C         3.98758176476510   -1.79051070615636    0.67006585900140
O         3.53433358176531   -1.09825466923937   -0.51929583597608
H         1.86907325562429   -0.75752946783431    1.24115021868443
H         1.22687414946699   -0.32214768369982   -0.27990363970109
H         1.45145789837677    0.94541759141954    1.12617464211407
H         2.56466162649096    2.07626095922206   -0.97786078609979
H         4.14479387266934    1.50489932840207   -1.48159161641728
H         2.44930992646666    3.04416606034318    1.27581781503357
H         3.46825657109893    4.62186858411024    2.35789545578014
H         3.18623264827983    3.52746601023218    4.34817388805189
H         4.90771634595637    3.98255311914149    4.41423479684451
H         5.38455658428608    1.66928660372627    3.64126613348451
H         3.82176741806158    1.30950268691264    3.57525644843665
H         6.13867525258212    4.29467779218268    2.05938150146999
H         7.42054783868249    1.84818103321579    0.55805039561893
H         6.42858696436643    2.37312516484014   -0.90283114746790
H         6.55930377061942   -0.31746928298252    0.34023723364483
H         5.61531466881292    0.07838337340690   -0.99927440521678
H         3.59370331061437   -0.60703006588763    2.54198582317132
H         5.25432281681499   -1.13034918611283    2.27318235059499
H         3.14315570666133   -2.44551260991709    0.92206001596630
H         4.81397044830778   -2.45961090688864    0.42143419748763
