36
 energy: -47.839570038289 gnorm: 0.139298022126 xtb: 6.4.1 (79825abcba525fcdf90b791dcacef51065a7a4e7)
C         1.86902937390324    0.15681488373270    0.62705850596733
C         3.21753866305266    0.05967694882160   -0.12329844306152
C         3.48448268204985    1.42497086680731   -0.72948085861124
C         4.06732386958830    1.82327704974471    0.69552387889829
N         3.35190784959239    2.45611520764401    1.79652735056240
C         4.05620888942137    3.67871319171555    2.28307793058766
C         4.11364024579399    3.74526038471365    3.84559088597663
N         4.28957809730206    2.43842419732889    4.49822461220456
C         5.38108600962358    3.53968567154863    1.56907702155260
C         5.32579119175957    2.53153856976478    0.70998823904426
C         6.39091003590436    1.84367847803712   -0.02237338255097
C         5.96666712274895    0.35831342228636    0.08042547130059
C         4.55504118850871    0.38838452231238    0.84305907861742
C         4.49289176230688   -0.87828964501428    1.69747748337110
C         4.02074047125190   -1.94387088121976    0.69512931531866
O         3.41373678760072   -1.32141963647754   -0.46389378554462
H         1.48646656471651   -0.86836488888142    0.67738988374321
H         1.14812528503534    0.73711587367060    0.04929071937083
H         1.92884665488810    0.46165759360565    1.68221375526474
H         2.62108414185243    2.01162678020818   -1.06142124488175
H         4.32286559298365    1.52048365009629   -1.43426404826752
H         2.44632594960467    2.72979328501688    1.40632340878908
H         3.49466628906490    4.56402238791812    1.97358759864570
H         3.17248310785650    4.12144149929986    4.26254884184265
H         4.92589015033357    4.38740227800901    4.21330085301646
H         5.02535493727698    1.97692176890938    3.96117587148336
H         3.43983671106944    1.90689787910868    4.29594451058339
H         6.13905990310772    4.28724452327896    1.73693728104096
H         7.34214341656883    1.92667327526923    0.51669262300630
H         6.49606055163745    2.37115997112652   -0.97607455004607
H         6.74573048704442   -0.17481555432263    0.64468435149118
H         5.90441335294223   -0.09918212071561   -0.91204433999989
H         3.61287670955697   -0.80261254234675    2.34205399121935
H         5.43162871689288   -1.10272031297351    2.22247658239423
H         3.31187884342710   -2.65143615543320    1.14507429782636
H         4.83148533966621   -2.51317934835923    0.23576926000450
