36
 energy: -47.844139874925 gnorm: 0.128610341232 xtb: 6.4.1 (79825abcba525fcdf90b791dcacef51065a7a4e7)
C         1.73670823110258    0.07693831307290    0.46205429682972
C         3.17883551331473    0.06569404931566   -0.09570113548321
C         3.42447777186407    1.48086815841759   -0.58527834471123
C         4.07803130776908    1.83661669008120    0.82017563382343
N         3.22059350643895    2.57908754958473    1.73562651962905
C         3.97763278274920    3.74126319530810    2.28676764453370
C         4.07984667557088    3.66415824014083    3.84650504400736
N         4.92195819666332    2.54175209373519    4.28895091401020
C         5.28415946779300    3.58687261095346    1.54274016548846
C         5.33476589422505    2.54213084240613    0.72824324276983
C         6.43484129072033    1.76545464147109    0.15327246864682
C         5.91560978770616    0.31433389708783    0.29992250723960
C         4.45379440417296    0.36765276810040    0.95981262276523
C         4.32122237324918   -0.96266106891319    1.70213776108922
C         4.07165776708813   -1.97133640391230    0.56927252364851
O         3.42604804331818   -1.28088142794305   -0.52876827200700
H         1.41873676797985   -0.93002649296534    0.75325379768315
H         1.05577503157884    0.33760584172230   -0.34951823817121
H         1.69853725114023    0.87756381682280    1.21531492031618
H         2.58426014060142    2.10430443616809   -0.90957476692831
H         4.26889379405339    1.47959995961287   -1.28932942349774
H         2.40001196658244    2.84614690901140    1.18556959672882
H         3.42901958975870    4.66779494125428    2.09848803152707
H         3.06709643424695    3.69852251571156    4.26399632044489
H         4.55019746905295    4.57389849170489    4.24456224756380
H         5.77106079272511    2.60890425802703    3.72566700101535
H         4.47043065281594    1.65019752592944    4.07273061131715
H         6.03759812579881    4.34670303412116    1.67132332760659
H         7.35811497109298    1.94097082948281    0.71814857887459
H         6.56484000120625    2.07594970051750   -0.88861640356849
H         6.56056798517316   -0.25986709320640    0.98100727389859
H         5.78416466480087   -0.20022178902742   -0.65722359098784
H         3.38888946669875   -0.85006245154430    2.26223533958813
H         5.19010900030164   -1.32152369566745    2.27088542086789
H         3.38346685439081   -2.69559129026810    1.02471960218913
H         4.99268739770009   -2.45422296360179    0.23617189747403
