36
 energy: -47.840687238379 gnorm: 0.144445816117 xtb: 6.4.1 (79825abcba525fcdf90b791dcacef51065a7a4e7)
C         1.91818478405527    0.02555220417704    0.79258630222573
C         3.14180816959163    0.22565767835742   -0.13134669465629
C         3.40791886753559    1.65772831517940   -0.55690799417122
C         4.14524927027339    1.92570962329930    0.82639233751949
N         3.29257948664546    2.54057761412005    1.83604780988642
C         4.01911202944726    3.73216833644202    2.36498933197782
C         4.13904554274820    3.33274192042645    3.87338185734539
N         4.47319071142562    1.91238270763575    4.06214733146508
C         5.38291694175785    3.60004393401934    1.72702031148704
C         5.37770391473308    2.67675658882660    0.77572399724849
C         6.43034963763359    1.90887644598541    0.10768207348192
C         5.86322311881092    0.47098960782689    0.01988782796469
C         4.49057875431618    0.44290574246636    0.85070708684986
C         4.46476863366232   -0.86959885340542    1.63494050205944
C         4.00616981288975   -1.78774654175234    0.49048258190021
O         3.46789275451126   -1.07331541988305   -0.64928911389565
H         1.02395160968728    0.34313639831377    0.24544060649570
H         1.95540578414368    0.61687886764314    1.70867304347339
H         1.88459378652480   -1.05708679238126    0.98396085842888
H         2.53437126540218    2.29477259077730   -0.73267980524396
H         4.15281492023981    1.71012324680646   -1.36382343629259
H         2.45091514869474    2.94081887533778    1.41338316899760
H         3.48269223934904    4.68449499048759    2.35034664694300
H         3.10137249109929    3.45274878559853    4.20500798853144
H         4.74180232244661    4.04417596823714    4.45463272420184
H         5.16257680775224    1.54758018631342    3.40302721717653
H         3.58705980010996    1.48164011842625    3.78877813862759
H         6.22548872387716    4.17788655377902    2.07011839455600
H         7.32770481789376    1.98417739859594    0.73330865270803
H         6.70299314167482    2.30837170649876   -0.87461536093342
H         6.50947629618908   -0.28971503989581    0.48166648557642
H         5.54343169190387    0.17589567375391   -0.98451596973360
H         3.69399262977628   -0.85547184886950    2.41039978468991
H         5.42682540915906   -1.25452509638218    2.00031525231186
H         3.23344164993994   -2.48169159672341    0.84673437130922
H         4.89787348566805   -2.32273589665576    0.15719297403800
