36
 energy: -47.839204578841 gnorm: 0.147486551449 xtb: 6.4.1 (79825abcba525fcdf90b791dcacef51065a7a4e7)
C         1.90365790320044   -0.10137384276704    0.71393928478370
C         3.16733675163039    0.11231983365347   -0.15116154186755
C         3.32000838018810    1.60652639539573   -0.36745268944976
C         4.18344718272953    1.75153233740213    0.96011533616001
N         3.53549895551532    2.31911617933416    2.13592339719622
C         4.11984643670185    3.67945375651095    2.32443585352805
C         4.13591218746103    4.02531464707593    3.85063890736472
N         4.17547757801653    2.86764911284239    4.75780527513259
C         5.42461731205368    3.55408559884916    1.57191932653381
C         5.43082770819962    2.46491355349752    0.81619627984359
C         6.27371070569357    1.80895473823477   -0.18542715481844
C         5.88331365076151    0.32184165443269   -0.00392279871040
C         4.51853832518140    0.27115238478142    0.83870464612271
C         4.44296583408931   -1.13821947006679    1.42719139732974
C         4.08380290061848   -1.96877060744497    0.18450121992433
O         3.46498588182631   -1.12448167308494   -0.81723491042602
H         1.76122498185747   -1.18693425301201    0.74788894609729
H         0.98061754437235    0.22381608180485    0.23174059766567
H         2.01496345386903    0.36578979582724    1.70349928762280
H         2.38922794027928    2.18261579358526   -0.40714416985548
H         3.92674338672904    1.88106125122168   -1.24222763493299
H         2.54654225037575    2.36977862722546    2.39406166993004
H         3.59642993050162    4.48308546867213    1.79993803580068
H         3.25920410501813    4.60300607711815    4.16496115439007
H         5.06602631181585    4.56476471751929    4.07688671777797
H         5.02999600784826    2.32775577705572    4.61259219138471
H         3.35537124590314    2.25782878442443    4.72551498122097
H         6.37017417239351    4.04944090088396    1.72054997461028
H         7.33805788400171    2.06063956153807   -0.10703654019828
H         6.01565723325359    2.10058406024767   -1.20875506924009
H         6.68215248333331   -0.23433631341609    0.50801167776480
H         5.75109061705737   -0.19275730207301   -0.96093848307030
H         3.65687407257220   -1.25935636797301    2.17753665524650
H         5.37709979891145   -1.38938962726335    1.94827444695587
H         3.41115119389304   -2.83594063014752    0.21826146674635
H         5.01053774906842   -2.37014429742525   -0.23082120951792
