36
 energy: -47.844077320945 gnorm: 0.140180014252 xtb: 6.4.1 (79825abcba525fcdf90b791dcacef51065a7a4e7)
C         1.86882833299809   -0.16069938617379    0.50247828110732
C         3.21950678554638    0.11380788918909   -0.19842266540669
C         3.33946260883204    1.59213555127500   -0.51920556296015
C         4.13175760876374    1.85050987673688    0.83523215570293
N         3.47724625307575    2.31997687231822    2.05002783333242
C         4.08346665697653    3.62656411738727    2.44098032290553
C         4.38138777066272    3.72154978034736    3.97440602001721
N         4.26229542979315    2.48663297376339    4.76529363987029
C         5.33022115834972    3.65785089671636    1.58713625231926
C         5.36644888213814    2.59829598226243    0.79122004761581
C         6.32172400075797    1.89122576365538   -0.06404856473100
C         5.81594321548841    0.42871309271762   -0.10989079612929
C         4.52023016597321    0.37821900267026    0.83550865981881
C         4.45472285776512   -0.97103644671118    1.55215041640090
C         3.96025618024172   -1.86745753439334    0.40540544832937
O         3.67015466101902   -1.11157861016628   -0.79614427665568
H         1.28067451034009    0.76339446093481    0.49987732343664
H         1.85552033883585   -0.58733124857084    1.50650802097306
H         1.35490555905956   -0.85053860519346   -0.18298872997392
H         2.39263246147058    2.13253501898352   -0.62544931543582
H         3.92998948817220    1.87725617318481   -1.40165227886462
H         2.47085292767006    2.50413715715031    2.02778222569683
H         3.40174827281406    4.41405033087996    2.10929939263457
H         3.74995739180920    4.48583715100903    4.44163553514457
H         5.45175713945256    3.93747251821955    4.09685405770573
H         4.89730075181588    1.79097660415954    4.37082709175266
H         3.31845295913028    2.09496192488382    4.72989487836545
H         6.15636601933531    4.29469666411110    1.85816739012003
H         7.37072104186724    1.94000444691560    0.25146864800471
H         6.30318439765030    2.41760713816622   -1.02395387871601
H         6.57899501529322   -0.21958227426082    0.34510303465061
H         5.42573819164594    0.11490545507778   -1.08325549634147
H         3.79961621045922   -0.99288897457701    2.42735905454564
H         5.44884715222242   -1.31825784811429    1.86579742135749
H         3.02365438556770   -2.36445370453388    0.69063483569294
H         4.68989719607882   -2.57101300186835   -0.00087614517057
