36
 energy: -47.848715516461 gnorm: 0.126911898729 xtb: 6.4.1 (79825abcba525fcdf90b791dcacef51065a7a4e7)
C         1.73262822897833    0.07609530603147    0.37765127309733
C         3.14556642989295    0.23685691159196   -0.22956367541951
C         3.43904745388880    1.70528711270569   -0.47517586117630
C         4.11541239350737    1.72736394621324    0.96393262608026
N         3.37231401898081    2.23556333827072    2.11025331080793
C         4.01881400121016    3.51208317604967    2.53457882670224
C         4.15446679321842    3.69019702986374    4.08346469085404
N         4.96756000548588    2.76289387622427    4.88577013789832
C         5.35262981775226    3.45370859870679    1.82609231946390
C         5.36973641000898    2.44307033908303    0.96832234234033
C         6.35964681719057    1.80656951158656    0.09715799188987
C         5.89804385184181    0.33063720185454    0.02363555403152
C         4.48727695726599    0.26163238770373    0.78532920769589
C         4.15845103602896   -1.14693549959412    1.28148130922146
C         3.89138151368989   -1.89673894178877   -0.03364634385843
O         3.46135122999331   -0.92237061584905   -1.01594665223022
H         1.55340579372108    0.67250062369140    1.27879562055210
H         1.61043268431683   -0.98284560156748    0.60998715891441
H         0.94116485320899    0.38103483277432   -0.32267536217819
H         2.54683933204316    2.33349172912052   -0.57072825146553
H         4.15928948367896    1.99855801619119   -1.25233192750262
H         2.35819138081619    2.30657401956372    1.99299221247612
H         3.40763680448517    4.34925439598960    2.18745705799428
H         3.13292161214275    3.86763228288566    4.43857749313525
H         4.69955345384477    4.64420140660657    4.09139661038719
H         5.98117539003409    2.80364293727852    4.76873693157857
H         4.61052612844243    1.80697349912384    4.82064765832243
H         6.24140845431568    4.01266343229376    2.06937767725488
H         7.37504844745402    1.96458351366318    0.47967120956939
H         6.39645519251604    2.29874642693322   -0.88020903911255
H         6.55242356251980   -0.26381598148047    0.67782736717014
H         5.81807511195126    0.00175780137463   -1.01733388982510
H         3.31321106700638   -1.13229691758148    1.97501394493192
H         5.03908487472606   -1.60827163916238    1.74932023783462
H         3.14144403380963   -2.69478594532911    0.04571783944851
H         4.76990129286140   -2.34309502039338   -0.50417826293313
