36
 energy: -47.843508885912 gnorm: 0.137080002818 xtb: 6.4.1 (79825abcba525fcdf90b791dcacef51065a7a4e7)
C         1.76781460958049    0.08847956222169    0.57878856826068
C         3.15870694323480    0.09373317557106   -0.09674049950845
C         3.46952327991259    1.44868702671302   -0.70521148230338
C         4.08977083246701    1.89451450601596    0.68960776970599
N         3.18779367070302    2.62295640550170    1.57296625352675
C         3.97925060740197    3.67745746424053    2.27235208615512
C         4.02426834653222    3.39744101665104    3.81142248283379
N         4.94248275041380    2.30478750818287    4.16876867362511
C         5.32126895747384    3.57991980182472    1.58394936831091
C         5.35215190439572    2.59589497442528    0.69614716620265
C         6.37568736285639    1.79036562869865    0.02720727383803
C         5.88234585646369    0.37882897514581    0.42850183065916
C         4.38519733967432    0.43413458015496    1.00355794041012
C         4.12683291995647   -0.79254444255924    1.87926507957209
C         4.10574043539436   -1.79178830931596    0.71129298562776
O         3.57899960997806   -1.21584703224949   -0.50939096253009
H         1.58732421018201   -0.91795414161306    0.97172052954708
H         0.99633208778407    0.16493502006065   -0.18882906738658
H         1.65656496682150    0.93535851676744    1.27181045198026
H         2.56210781430711    2.02324303217423   -0.92036059322658
H         4.18327874168268    1.42380428069706   -1.54107145009641
H         2.48726013482457    3.09647494047448    0.99653734189620
H         3.52675480506039    4.67051540725908    2.20934318240380
H         3.02288597879743    3.19594015647530    4.20862979329120
H         4.58625176897125    4.26312806370937    4.18834061344124
H         5.84973681298445    2.41257323505447    3.71264840932230
H         4.54439164021606    1.40369051903773    3.89482421310090
H         6.18693805247718    4.15215580267008    1.87499673066507
H         7.40911696313196    2.03944005053147    0.29611311911454
H         6.29018154775463    2.00716250551952   -1.04261844566739
H         6.51358380296393   -0.00813206105596    1.24173862174396
H         5.94584224200116   -0.32025434698623   -0.41139381463312
H         3.20089599201822   -0.71296136830093    2.45540713962499
H         5.09710694744454   -1.02369603862200    2.34008764941433
H         3.40200914660555   -2.60966228354550    0.91483250237327
H         5.11684597322454   -2.14526882013656    0.49881207005991
