36
 energy: -47.843206059546 gnorm: 0.129197590948 xtb: 6.4.1 (79825abcba525fcdf90b791dcacef51065a7a4e7)
C         1.66041018014551   -0.08532010041262    0.34281049803035
C         3.06026750054334    0.28913980926034   -0.19675221450890
C         3.43626967894144    1.75605440380556   -0.29436194991587
C         4.19188648261273    1.69012949954538    1.10338169407413
N         3.46314164434055    2.20864535517145    2.25428792903931
C         3.94989580822731    3.60641867084633    2.44616647228818
C         4.23971281709665    3.83511699305648    3.96698098244644
N         4.95001785504734    2.72689164184984    4.62425492796940
C         5.29806726902295    3.58789732437151    1.76314671872944
C         5.44104306072559    2.41193865563097    1.16805785050436
C         6.45659783150750    1.68488328096391    0.40384439755345
C         5.76603013176409    0.38803998913166   -0.08418505681935
C         4.42629261980329    0.22009741789349    0.78305239042166
C         4.27393273941109   -1.22720708126318    1.25257664279444
C         3.82323969163692   -1.80966445097032   -0.09676069819366
O         3.49969350504145   -0.77365758418490   -1.05657381215561
H         1.47864610668915    0.53969356903512    1.22383311765165
H         1.59213582973451   -1.12840851073003    0.65517686475471
H         0.81896339423821    0.15353192090861   -0.32410539622340
H         2.59308206562303    2.39597093242516   -0.57604994152716
H         4.26233972842047    1.84946276294669   -1.01381389387875
H         2.44516305209361    2.11142628550631    2.29308789675592
H         3.28643865931790    4.40770235672359    2.11052411733581
H         3.28506672320652    3.98530722659865    4.48393034714021
H         4.86377356106925    4.71712263266785    4.16678330787730
H         5.84858814699998    2.53067144202647    4.18058561163584
H         4.41392125336895    1.85697243202058    4.66084579287822
H         6.00339717276588    4.40053800465937    1.82373195562292
H         7.33986320535825    1.42998681384724    1.00150259212440
H         6.87702538339346    2.28860767574325   -0.40707903377571
H         6.34810616302659   -0.53299903016890    0.06557788987747
H         5.54552344602434    0.43806933494693   -1.15518827878018
H         3.55882895396839   -1.29944089985601    2.07661624060483
H         5.22038979389684   -1.68496187828864    1.57179419099852
H         3.05506490157628   -2.59339579899987   -0.13220902645742
H         4.70052065914305   -2.26734567114185   -0.55864492583213
