36
 energy: -47.838157893391 gnorm: 0.138225969290 xtb: 6.4.1 (79825abcba525fcdf90b791dcacef51065a7a4e7)
C         1.78100857716521   -0.11218778888568    0.40993044786307
C         3.19616812760414    0.13243312684107   -0.16316004639362
C         3.37820034561634    1.60502393804864   -0.48109763396722
C         4.12096131026110    1.82415968972470    0.90788611412051
N         3.39784407165955    2.49521663681809    1.98087118136917
C         4.09857031816632    3.75442936638043    2.36930814606443
C         4.22565865981574    3.74300092193517    3.92908106123014
N         4.63475667666665    2.38591955692768    4.32363738937189
C         5.45018665426562    3.58752490077000    1.71379193585089
C         5.39487197786633    2.50286940136291    0.95358512391512
C         6.37431025897541    1.81934754413913    0.10654217512328
C         5.93326220414987    0.34506769120893    0.27634958517177
C         4.46441701266460    0.34079450773359    0.92262945280345
C         4.12771467843782   -1.01413733817337    1.54644684030325
C         3.95541697367917   -1.89864196654184    0.30103239103579
O         3.56437487279531   -1.08398056290024   -0.83150743344653
H         1.71269357196970   -1.09649777830882    0.88569092003411
H         1.02189920809620   -0.18738409120739   -0.37004778694778
H         1.57353554771565    0.75425691669568    1.05497951843842
H         2.45428302443253    2.17681447933504   -0.61980236443975
H         4.10065145117472    1.81246175982286   -1.28344538367853
H         2.45200042193583    2.82702529369659    1.77466690240598
H         3.66549892760082    4.67555712486085    1.97073625738229
H         3.28995207487920    3.92482479472716    4.46994720519618
H         4.93479349142179    4.55476989828892    4.14230781414328
H         5.60791044440054    2.32087783177977    4.02112339598628
H         4.07063079274106    1.69079840265350    3.82960656373691
H         6.11788577156464    4.40397365314716    1.93545624197364
H         7.42987637704654    1.99069009595351    0.34892031053499
H         6.25354805943612    2.21438808202370   -0.90745917817243
H         6.53501124430851   -0.16657896532072    1.04164045259618
H         5.99853436692419   -0.25094358473524   -0.63944741715729
H         3.16529042257605   -0.93842378479405    2.05990513635891
H         4.78696358837795   -1.49032262100559    2.28526936431096
H         3.16666677137790   -2.60016885004703    0.60321953080040
H         4.84050577397405   -2.43310338943575   -0.05025075104387
