36
 energy: -47.845267092922 gnorm: 0.134771156664 xtb: 6.4.1 (79825abcba525fcdf90b791dcacef51065a7a4e7)
C         1.73195376584834   -0.04754702714548    0.45801365639374
C         3.14547223588757    0.06761319846545   -0.15814566930470
C         3.33601474833552    1.52823157713111   -0.52288014097868
C         4.08877986209206    1.87648525768313    0.83397438113274
N         3.24859810367414    2.58962658094752    1.78793294283315
C         3.99212803907237    3.77836384901141    2.29938594264823
C         4.29702810559533    3.61320832375972    3.82547021117882
N         4.77933723687620    2.26394438167283    4.15949181243801
C         5.28772519196105    3.73101605573554    1.52246155264313
C         5.33588060658086    2.60466291068323    0.82499380708970
C         6.43790689332694    1.76050259484459    0.35925288222163
C         5.76155764442411    0.38628471775646    0.13356301154580
C         4.37645708671516    0.38527682641241    0.94393175519132
C         4.29130742723317   -0.92452204478242    1.72849106601841
C         4.15150114200372   -1.87951352313945    0.53202228299518
O         3.63124216989161   -1.19667325505595   -0.63515094689271
H         1.43921734194819   -1.04136150738863    0.81370915473447
H         1.10603452289752    0.31558450987921   -0.35845933809257
H         1.70015519774014    0.70465730782294    1.25990970805047
H         2.40486213336366    2.10501625452056   -0.53187286846145
H         3.86183272860181    1.72448665652523   -1.46825168578028
H         2.37467707221523    2.88546707840998    1.34523912663546
H         3.43528745495804    4.71070733561481    2.17468267433358
H         3.37510623587676    3.83936261754928    4.37324499813229
H         5.09681296538339    4.33112896206470    4.05403281104335
H         5.58549786620410    2.08586426018605    3.55852100782361
H         4.01310945213984    1.61865943397005    3.95455229352205
H         6.16584815125392    4.29980392306171    1.78116241671159
H         7.04291267047215    1.70374576319363    1.27198060646337
H         7.07222373117584    2.12014855771419   -0.45753118201727
H         6.27360181747473   -0.44654594927905    0.63730714740219
H         5.62140533404517    0.27213935195822   -0.94602125626076
H         3.42072162347577   -1.04800271988029    2.37846436459431
H         5.16924441575651   -1.26255808594500    2.29609879554236
H         3.45438441742878   -2.69973904069092    0.74845307663835
H         5.11589346681477   -2.24007911084903    0.16819411267345
