36
 energy: -47.843179603058 gnorm: 0.138315324140 xtb: 6.4.1 (79825abcba525fcdf90b791dcacef51065a7a4e7)
C         1.76226677586496    0.13994250578119    0.42383672493553
C         3.17456192700328    0.15877159712572   -0.20546171689178
C         3.43949726327174    1.62952930372372   -0.46894751286237
C         4.11332023547207    1.71037577004792    0.96925157264231
N         3.33369666048484    2.28454297522347    2.05876155955049
C         3.95527948575104    3.60834734622934    2.35657696420075
C         3.94747613845601    3.87715271159853    3.89828264089793
N         4.89937935327807    3.05595788240830    4.66262879492238
C         5.35585676934516    3.39985704394641    1.82805033885318
C         5.40709472784450    2.35001444717243    1.02017854425770
C         6.38202846111863    1.67630294694141    0.16017839278614
C         5.84400675714783    0.23347905869407    0.00001942762517
C         4.48267534410074    0.23801853815515    0.84970070774386
C         4.34096241657123   -1.16913730062309    1.43123898790745
C         3.90115756953714   -1.97156818690284    0.19601898934809
O         3.62073884678613   -1.03268181202389   -0.87126321013753
H         1.47212959064319   -0.88124318280715    0.69380213852561
H         1.04620783009815    0.60693880329775   -0.25398449666045
H         1.80630527621674    0.68464868695576    1.37841284846010
H         2.53129013507842    2.18362794797912   -0.72960273632086
H         4.15187696870486    1.97918032781755   -1.22985964616564
H         2.34087678031391    2.48861294163385    1.91768876336414
H         3.40021434980537    4.36060897188122    1.79010378067218
H         2.92245269084731    3.67206854205372    4.22753988793879
H         4.20266612470538    4.94089396135324    4.00142989125818
H         5.88087322641629    3.33694724798220    4.68472300416940
H         4.74876558892901    2.09157643307237    4.35802773844499
H         6.20956922814283    4.00662684896099    2.08211955321107
H         7.43135433990604    1.67472953867300    0.47835756307920
H         6.42878602624854    2.15514858073566   -0.82336615096851
H         6.53897517306458   -0.50873244507445    0.41917966755065
H         5.65613581123576   -0.03423161726192   -1.04459032722789
H         3.61099470025406   -1.24377499054827    2.24192311967160
H         5.25126213308461   -1.68824473875082    1.76154513945192
H         3.03880928799642   -2.62733629046418    0.37464584486330
H         4.76588785297620   -2.58095994235380   -0.07474707675159
