36
 energy: -47.841770581470 gnorm: 0.135944820804 xtb: 6.4.1 (79825abcba525fcdf90b791dcacef51065a7a4e7)
C         1.81442092375415   -0.12399341392098    0.36743147104642
C         3.18558435519990    0.24102310826192   -0.24707844553855
C         3.41140331487780    1.74075702446536   -0.19660376316228
C         4.18566905484426    1.61163931656219    1.18644768497844
N         3.51179644570209    2.18128207887725    2.34658378594424
C         4.05758883127371    3.56979984437123    2.38715862662817
C         4.20343833126557    4.07123850816604    3.86244191943814
N         4.76262793142241    3.05608871140069    4.76879924404054
C         5.41861106001281    3.50919472150640    1.73265818349962
C         5.40112403671077    2.37798348905493    1.04163937816739
C         6.25323343795526    1.75374253824171    0.02762950670317
C         5.90084556859380    0.25609541420579    0.20006760805741
C         4.44452641604424    0.14594864322519    0.86505206497612
C         4.21664597813287   -1.30846586887867    1.27870151289232
C         3.90233937614901   -1.87962116937630   -0.11344972086886
O         3.56799980130212   -0.85948123354250   -1.08646829121936
H         1.02627474926478    0.19054671632902   -0.32522373397037
H         1.61106538436643    0.37003332602423    1.31866838512817
H         1.66523407845169   -1.18913634465500    0.59780857357793
H         2.44162710739284    2.24935434083714   -0.22247870086887
H         4.10362964023815    2.11448156527311   -0.96464063630943
H         2.49313949460358    2.18998826476344    2.24911784482948
H         3.39496131025896    4.24999197315511    1.84572519616622
H         3.19406165816859    4.17641275910785    4.27625350115205
H         4.70564895098599    5.04326989997141    3.96366543133007
H         5.69430847086751    2.73646108454592    4.49938700924357
H         4.08400274964240    2.29130605133572    4.76024153583518
H         6.19294556753118    4.25119736185926    1.83935345875208
H         7.31936799278814    1.97351809817105    0.15946678507699
H         5.91811596739461    2.11009036460242   -0.95193763360483
H         6.67389267651357   -0.33825864944452    0.70868902282095
H         5.87449222021522   -0.12206999824598   -0.82680651093089
H         3.39553712527923   -1.45718986299182    1.98530878494110
H         5.11661198419879   -1.83426313161112    1.62629133608545
H         2.99089089790989   -2.49174765542142   -0.12556391254472
H         4.73726808988237   -2.48154428796832   -0.47816007142439
