36
 energy: -47.842790258781 gnorm: 0.137157980198 xtb: 6.4.1 (79825abcba525fcdf90b791dcacef51065a7a4e7)
C         1.75443246773655   -0.12676172063875    0.42394294180957
C         3.15714521207271    0.12538045369842   -0.17586531114246
C         3.41261996596266    1.57199849197942   -0.55635529834997
C         4.06952801143025    1.80545033118889    0.87296698999649
N         3.23572513270639    2.37665782359143    1.92320869628523
C         3.85849218424548    3.64655042673775    2.39970760951124
C         4.11102086762083    3.49886941458870    3.93710579734136
N         5.36276692075131    2.84726620506246    4.35333986255081
C         5.17741612590831    3.61849341570147    1.66209133619810
C         5.31431447696102    2.53679298151529    0.90801266088105
C         6.29685335826827    1.82707242622460    0.08649133394065
C         5.92353997096283    0.34049463121515    0.30462566076850
C         4.43386189443508    0.32727043707333    0.90118784034685
C         4.26395932270826   -1.01952358914852    1.60520191457422
C         3.88630885225311   -1.91222472040008    0.41207288526839
O         3.57422959755773   -1.11864298955428   -0.75928024325433
H         1.53760868433626   -1.19510781285459    0.31668066579095
H         1.14499536549507    0.33365354724207   -0.35507680223241
H         1.45962247375354    0.38060717864224    1.35427818194358
H         2.57921974828380    2.17909251058517   -0.92606811311087
H         4.18904104621735    1.72816684862410   -1.31892313468900
H         2.29996157299595    2.58230926884805    1.56363751810929
H         3.23028667943614    4.52957372360236    2.25647901395574
H         3.21986991295029    2.97568421475110    4.30216762820357
H         4.08456187582130    4.47046103437232    4.44956689667543
H         6.10139483724907    3.47855094770763    4.03920331078677
H         5.53770248427454    2.00048595991573    3.80757557731349
H         5.82509238050431    4.47540901023720    1.75016436718611
H         7.29231350104258    2.02826425428533    0.49989935988312
H         6.22478122601090    2.16615842404790   -0.95209692440888
H         6.53944717932625    0.00211033160657    1.15062133903824
H         5.99446025305756   -0.37477762667075   -0.52092260937558
H         3.43257138428746   -0.94757259708792    2.31177784738504
H         5.15962990813252   -1.43068149854867    2.09094220592334
H         3.07698521366998   -2.64083194069212    0.55246762464025
H         4.75362135217509   -2.44971851320338    0.02309925438870
