36
 energy: -47.848178843319 gnorm: 0.139429846164 xtb: 6.4.1 (79825abcba525fcdf90b791dcacef51065a7a4e7)
C         1.73413361613213    0.09060738391979    0.31080198257868
C         3.20009576897809    0.17438651136847   -0.17384704298584
C         3.45998825696596    1.61492025754350   -0.57392471350638
C         4.04286232500135    1.83933944014321    0.88856767777862
N         3.25907948318304    2.45275918171789    1.95342145306938
C         3.98138192404618    3.68356844596621    2.39034819363218
C         4.19626339038751    3.64403261296029    3.94000508273682
N         4.93620263777411    2.44827920491734    4.37286697056072
C         5.30426769987910    3.56574165618524    1.66888066713193
C         5.32245890089779    2.50854919284873    0.86921522909623
C         6.30744765810775    1.75119399133858    0.09449369152606
C         5.84928767617947    0.27448724402325    0.17377563377321
C         4.44375847850314    0.37135813668581    0.94208923330909
C         4.30331142647868   -0.97701973187417    1.64955555638554
C         3.97461277957684   -1.88265529207339    0.45169350089080
O         3.67503976955430   -1.07018683902918   -0.70993664790592
H         1.23665738887421   -0.82044776613878   -0.03902231307280
H         1.20955633573790    0.89651392472513   -0.20456282724312
H         1.61643423508249    0.15174715007657    1.40271249809282
H         2.62070158395443    2.25318032626218   -0.87062084948153
H         4.25901831706225    1.80115299801838   -1.30576915277488
H         2.27643474030376    2.63175764814819    1.73069684387783
H         3.40344523233896    4.59549788747163    2.21929089103830
H         3.20730523922971    3.56308127611599    4.40535610444833
H         4.61817697808189    4.60662567132361    4.26048949566067
H         5.85364259368476    2.41021255267569    3.92606919069218
H         4.34886194862517    1.64332550347055    4.14356729304207
H         6.02051083973020    4.31757834309716    1.95746876061723
H         7.34198212545458    1.89740795629497    0.42718748504745
H         6.30157898307633    2.00856701193042   -0.96972619359127
H         6.47901830301249   -0.34970364682560    0.82445173328570
H         5.81273057574435   -0.21673388887430   -0.80374132880480
H         3.48688514234987   -0.98053236456201    2.37692629009944
H         5.15162441547950   -1.28257302375507    2.27742697044352
H         3.21533559952442   -2.67266255310600    0.52219605173628
H         4.84958406260515   -2.48239854021658    0.19253268842826
