36
 energy: -47.844157808821 gnorm: 0.142304143171 xtb: 6.4.1 (79825abcba525fcdf90b791dcacef51065a7a4e7)
C         1.85670614954646    0.07797605934644    0.69257955684263
C         3.16006051753248    0.10516475015053   -0.13897128962072
C         3.48000609967708    1.49015181396333   -0.67018628683032
C         4.07872650637307    1.83605273033877    0.76190190393370
N         3.24269891396607    2.53947944371370    1.72666177391767
C         3.97910606284605    3.75454131058417    2.18365894050749
C         3.92789579641701    3.75160296583149    3.74780167068561
N         4.69826055135964    2.70684845695897    4.44042846926250
C         5.37916058406380    3.51523333553971    1.66693430136235
C         5.38270084756285    2.44427457294375    0.88559799250401
C         6.39670548899665    1.66159018823405    0.17624409382809
C         5.79345742448653    0.23616718826408    0.14277697385241
C         4.41398214270980    0.36305906564193    0.95280689347477
C         4.31273699428294   -0.97424854986182    1.68745960376789
C         4.09049382662610   -1.88938120646763    0.47245661441402
O         3.57231039760640   -1.16384913083542   -0.66961287441855
H         1.37203319073651   -0.90365461621611    0.72965325130534
H         1.03482042552739    0.71309035133351    0.35881129228406
H         2.09864785338944    0.42650996369843    1.70739388253876
H         2.70660571114299    2.16231725799765   -1.05729361843664
H         4.32503268598205    1.38070998140893   -1.36493840570419
H         2.26613335741546    2.74037294046269    1.49601287155436
H         3.47665497638124    4.63775294252830    1.78071124523435
H         2.84898484306977    3.70119559076851    3.93368649598128
H         4.35400225332719    4.70018650540249    4.10266683757519
H         5.67219488650416    2.99843737148369    4.34450550962163
H         4.69736797105230    1.83021721191844    3.91410655862281
H         6.16145276793568    4.13692874166785    2.07074054881816
H         7.41000414791688    1.62338664261904    0.59348691120933
H         6.54193278018965    1.99128731722704   -0.85770373626092
H         6.49442987088508   -0.48714280974094    0.58438153808005
H         5.64787686376883   -0.22922248459013   -0.83721934417636
H         3.53882618279591   -1.04007466393620    2.45710977452440
H         5.19200920592275   -1.31399824561319    2.25196892679243
H         3.36924657578052   -2.67996540349519    0.71814532957607
H         5.00672623239851   -2.39144946747057    0.15484572636758
