36
 energy: -47.837329645946 gnorm: 0.130821678844 xtb: 6.4.1 (79825abcba525fcdf90b791dcacef51065a7a4e7)
C         1.76995542283953    0.11521028682246    0.42794702927761
C         3.19510377440526    0.13613436754179   -0.17160525138935
C         3.48873558305438    1.60597432328500   -0.40844808591419
C         4.16167570303702    1.69140450527348    1.02989930737371
N         3.49617704250371    2.22333164897973    2.21255631283182
C         3.94768986909583    3.63328625051402    2.40145126168203
C         4.03668168398807    3.97238820899708    3.92666069812911
N         4.69167031135521    2.82839099015202    4.58008701500040
C         5.29024514289855    3.54002345094464    1.71350318288919
C         5.35737460052774    2.49158079926535    0.90497796058972
C         6.39596523358103    1.79027717266695    0.14768958761559
C         5.88230002286352    0.34003008289905   -0.02490911812516
C         4.53579547689246    0.22756276457541    0.84081514864246
C         4.41195343812682   -1.19208569571228    1.39544828705501
C         3.87259155730147   -1.97915200846433    0.19016517994373
O         3.53565358982971   -1.06451306787899   -0.88181521048055
H         1.47672126989280   -0.92684678924197    0.59531455113475
H         1.04880855786812    0.45807262448106   -0.31546413855995
H         1.60229680565333    0.70950626555244    1.33820119634064
H         2.70374848030466    2.29009608551390   -0.74841750629976
H         4.27961364193008    1.66490114095331   -1.16987268621852
H         2.59250402637402    1.89546712810722    2.56343698253634
H         3.30697797783610    4.36772027909260    1.90649511688156
H         3.04385262191730    4.18078492398799    4.34139453930271
H         4.65892690063003    4.86642335880445    4.07094774010260
H         5.56992792845194    2.73270060276116    4.06795392408522
H         4.15904144480862    1.99800683590698    4.31126266337452
H         6.03364969975828    4.31559973726417    1.79939086385301
H         7.23772178711378    1.74746171634883    0.84907245135924
H         6.82716389165877    2.19944982086202   -0.77181280567096
H         6.49753153434791   -0.43945492043737    0.44779330489455
H         5.82720354531754    0.12552416926205   -1.09688186079583
H         3.59092061279568   -1.18585552873091    2.11759690104651
H         5.31445476127998   -1.61805197536839    1.85508320902142
H         2.91940651588543   -2.43292539829067    0.49201262381427
H         4.52337083143360   -2.66893194844767   -0.35124130316599
