36
 energy: -47.841572979942 gnorm: 0.143617043597 xtb: 6.4.1 (79825abcba525fcdf90b791dcacef51065a7a4e7)
C         1.85656587577749    0.00101129588085    0.59912302272004
C         3.20864890633800    0.11840487812101   -0.14184852068928
C         3.41548961241169    1.55216498757060   -0.59383582017967
C         4.06847148760232    1.83538919694745    0.82827135421358
N         3.28625560402504    2.50357317015076    1.86083194463735
C         4.06365881769093    3.72258887454892    2.23118607110974
C         4.02410138851678    3.73419422565352    3.79562659024195
N         4.46994387660774    2.48353678500396    4.42949263662829
C         5.42907351182724    3.53721760212893    1.61013411560391
C         5.34105121938292    2.51561992777583    0.76987112471058
C         6.37494111318830    1.71611633459196    0.10968259463132
C         5.89638445135173    0.24450972685882    0.15676256353798
C         4.48980861374551    0.37492864536524    0.91816743830540
C         4.30449874588532   -0.90884097451716    1.72807647906024
C         4.04575430291648   -1.80042999513940    0.50283675661765
O         3.52734766069879   -1.16848291408356   -0.69346211859459
H         1.63256112845668   -1.01780891532617    0.93335101874766
H         1.09637852142989    0.16039500284989   -0.16702289571845
H         1.76375462997821    0.75070761042014    1.39862366682558
H         2.48362883733307    2.08352092510167   -0.81542774598785
H         4.17421828542943    1.58991748493598   -1.38858954945173
H         2.41224239498491    2.77150111403120    1.40088313947587
H         3.76600776769670    4.62714354621235    1.69446321722450
H         2.97011859676025    3.92987654815064    4.02359944733472
H         4.62607578289268    4.58790110204833    4.13638769624307
H         5.48830085204921    2.53197161277966    4.37138465923875
H         4.13589966569818    1.67509238619123    3.90003063651513
H         6.26644590749773    4.12905340662884    1.94192257634987
H         7.33230931619247    1.80057089031102    0.63754507257098
H         6.63266910654472    2.08140522766794   -0.88980706771540
H         6.65069436920475   -0.39076724206223    0.64358289287767
H         5.79408920995287   -0.23951874770753   -0.81967286483982
H         3.56790530558066   -0.84573352419355    2.53373144932835
H         5.20344195079618   -1.25115609078679    2.25905830464806
H         3.29287356761049   -2.51595225231837    0.85890192362490
H         4.95133675377135   -2.34780133683272    0.23314050981919
