36
 energy: -47.836697353155 gnorm: 0.145747238293 xtb: 6.4.1 (79825abcba525fcdf90b791dcacef51065a7a4e7)
C         1.73575228340280   -0.15577680206148    0.47226506489676
C         3.13872090975376    0.11486584402623   -0.11881889848431
C         3.31306892973884    1.56962193771460   -0.51382675565389
C         4.07777974370624    1.87090856626105    0.84758203222778
N         3.35216792662033    2.59811587139614    1.88158875918984
C         4.10015732669887    3.83091139705015    2.26661380070668
C         4.24050854660217    3.91261951385545    3.82314806730209
N         4.49164154154167    2.59078395112712    4.41845360317321
C         5.42131683156046    3.57432697157902    1.57877129594144
C         5.37101694687317    2.51095390578274    0.78873378640976
C         6.38702322673376    1.66402070118186    0.16070624765996
C         5.82842382186768    0.22677591885545    0.29910115537164
C         4.38391757947383    0.38520348283211    0.97991280107097
C         4.30721933588580   -0.99274011191939    1.63850652382121
C         4.18335623633246   -1.89988940207049    0.40366638425094
O         3.65711178004555   -1.09943256694849   -0.68333371060411
H         1.57896412571977   -1.19824876708338    0.76983992689752
H         0.91749837042063    0.07766652741125   -0.21054699641884
H         1.61320865535062    0.46043332601267    1.37510941850091
H         2.34999023359218    2.04364029117139   -0.73198418032761
H         3.99004735075686    1.75813066582842   -1.35933999403928
H         2.44256469901218    2.78004477948484    1.44942996614717
H         3.54279894138840    4.66508830595564    1.83257781630151
H         3.26886373928275    4.27592464099210    4.17678442117982
H         5.07126795820511    4.59833565831992    4.03980193599529
H         5.29503733656602    2.20914741811747    3.91677427176435
H         3.70568576452845    1.95716505840143    4.25628546680252
H         6.22678022802831    4.26944963677747    1.75075650922751
H         7.38751742466621    1.83737620834135    0.57457153443987
H         6.52702689877055    1.85404587072225   -0.90846571316824
H         6.35810509476306   -0.50643790018803    0.92471250440852
H         5.74246512418732   -0.41598286808610   -0.58274138992483
H         3.44867701326441   -1.07792586340698    2.31028094500394
H         5.14853986808227   -1.38978166731616    2.22310726284169
H         3.67667011410188   -2.86241712698902    0.55331086430400
H         5.21406406677056   -2.11482745131576    0.11405623502614
