36
 energy: -47.848971235168 gnorm: 0.130919787769 xtb: 6.4.1 (79825abcba525fcdf90b791dcacef51065a7a4e7)
C         1.76287225197202    0.04552828850913    0.42840673584425
C         3.20902774113461    0.12473118767914   -0.11317414437015
C         3.47401273593601    1.53190078477817   -0.61556880196249
C         4.14644787355484    1.82715725446135    0.79497887593559
N         3.33665008272232    2.47170280820220    1.82128363143114
C         3.97835558438466    3.73366026065803    2.29371846978208
C         4.13635777272075    3.69896489815054    3.85031897960973
N         4.71573715974560    2.42792307532631    4.31235569724948
C         5.32096735069063    3.64346628999442    1.60547140621454
C         5.38510134773854    2.56874562632500    0.83196383149588
C         6.38381958292030    1.79108893933161    0.09589645738988
C         5.92216197097487    0.32526573390245    0.28322930531669
C         4.47361524526046    0.35077741705807    0.97334786266342
C         4.26985706258871   -0.97839467255674    1.70145570493435
C         3.92761177130788   -1.92781406942348    0.54190275446869
O         3.62992205533119   -1.14333162016762   -0.63928380848157
H         1.73018410085267    0.46075720438475    1.44151953873754
H         1.42552810000757   -0.99057592716630    0.37405106263860
H         1.07302916938289    0.67868871949712   -0.14872771747494
H         2.57715347564215    2.14679544143206   -0.74730587026277
H         4.21821410172023    1.55183812143591   -1.42457732181876
H         2.41488438698922    2.69895326310805    1.43925925911638
H         3.38185523275349    4.59677902267103    1.98696113818155
H         3.14403337594256    3.83736983784868    4.29448030546933
H         4.83712306153247    4.48926990802538    4.15306100379730
H         5.65200160037563    2.40429334887341    3.90538649483711
H         4.18804512051985    1.57451651450141    4.11554044374684
H         6.06219251143439    4.39084047211043    1.83690783791687
H         7.42054746207770    2.01862340271898    0.37112114338810
H         6.18307717642638    2.05740612768811   -0.94699227466098
H         6.44656995611285   -0.24664013080892    1.06263565596978
H         5.80710003793682   -0.29525745117947   -0.61113402214744
H         3.48849577345397   -0.86575482689461    2.45803961152743
H         5.15981825217331   -1.40384532665614    2.18537829990986
H         3.11150006310777   -2.63647721640052    0.73514390410204
H         4.85722661291675   -2.42837944463797    0.26318858640487
