36
 energy: -47.840384395596 gnorm: 0.141573543740 xtb: 6.4.1 (79825abcba525fcdf90b791dcacef51065a7a4e7)
C         1.73033605485623    0.01208926293435    0.46227955575708
C         3.16290109382093    0.08458376881881   -0.11517226696458
C         3.46251394728768    1.54338260027588   -0.40651713762035
C         4.14888937957985    1.71913892586972    1.01720636349370
N         3.36128503049471    2.47839004125294    1.98039379225714
C         3.99107820478918    3.80750887599263    2.23400947241943
C         4.06229478510406    4.00184367754453    3.78524632660233
N         4.71600033387203    2.86785825266058    4.45714797515848
C         5.36877771602594    3.52490134610484    1.68038293423183
C         5.40277029644305    2.43064427211129    0.93278841865895
C         6.50281392930498    1.66474232399016    0.34348256242005
C         5.81193171901377    0.28999995776569    0.17136576428981
C         4.42954534406381    0.22292580668362    0.98359174194424
C         4.34918349377062   -1.21714690835923    1.49161675863608
C         4.04946434512815   -2.00502704714610    0.20611864482826
O         3.39106275646639   -1.16905339106035   -0.77718648336904
H         1.34249391484447    0.85042048256864    1.05105825971742
H         1.55626926263417   -0.84292597099394    1.11719730986919
H         1.12459144627094   -0.02378865245512   -0.45513312745299
H         2.54450390459007    2.04868472649348   -0.72547474379125
H         4.11055190922612    1.77274490301275   -1.26451928867584
H         2.38097041873374    2.52317464158078    1.69019560065126
H         3.52606224426311    4.72595560183369    1.86644656740063
H         3.08994938854907    4.20273296457410    4.24928386983706
H         4.62559057108159    4.90877716039825    4.04500822445707
H         5.60585338335490    2.66522681101004    3.99902632404262
H         4.11276279756686    2.06552601091721    4.26255779874396
H         6.11707797021605    4.29624078664733    1.76179485870925
H         7.33072227522515    1.72742640822844    1.05969741051740
H         6.89137127571515    2.14306905958995   -0.56154008514976
H         6.54946373613120   -0.47948755614201    0.44245578947360
H         5.50955893938916    0.08331496995389   -0.86015061514546
H         3.65030958089991   -1.42309413156091    2.30696540025467
H         5.34047488742218   -1.49586332609175    1.87486443158904
H         3.44269757594873   -2.90550077533694    0.36910659566940
H         4.94842367494521   -2.29624413352689   -0.34114342323708
