36
 energy: -47.840405479064 gnorm: 0.144332038948 xtb: 6.4.1 (79825abcba525fcdf90b791dcacef51065a7a4e7)
C         1.75966329539338   -0.11172301769028    0.42279635471603
C         3.15091705237317    0.17595991211612   -0.18761347628295
C         3.44283810109420    1.62555544691491   -0.52849264184046
C         4.11205952959473    1.79557291927306    0.90406691500053
N         3.25181225155791    2.43365916725973    1.89266868472632
C         3.96079861742033    3.67773903324070    2.31352597433893
C         4.05847979473724    3.72177992740643    3.87483708877007
N         5.00843062685844    2.89076121694152    4.63095020475904
C         5.34657385676512    3.53008277354150    1.72850465952542
C         5.40551198433233    2.43245123403200    0.98743588290521
C         6.49118529187577    1.72307167499677    0.30767318278893
C         5.83001950681993    0.34756312234374    0.04749048835737
C         4.45248130686657    0.31182926497284    0.86987341921625
C         4.30674220191185   -1.08845818388913    1.46679220283448
C         3.95777330311983   -1.93637979001489    0.23296006972773
O         3.47568919506734   -1.06989186548135   -0.82346179985419
H         1.74737299496923   -1.16479192327305    0.72408682509176
H         0.90046722053409    0.08395740555016   -0.22044453273786
H         1.55573104447530    0.63590551474369    1.20338779793512
H         2.53104871965499    2.23217513528217   -0.50706138223779
H         4.05777297324310    1.83921942782539   -1.41445582744239
H         2.31421416595938    2.71111211099911    1.59072979744056
H         3.44008602093547    4.58802676752812    2.00510846699572
H         3.04843771984181    3.45701951019768    4.20779331289028
H         4.28310717663613    4.76042716871192    4.15423139583257
H         5.93665730817454    2.88559175680482    4.20534251529248
H         4.68950027734313    1.91963455175509    4.65730021111528
H         6.14534471528158    4.22916808108981    1.91502696196028
H         7.28546310153232    1.48975280353197    1.02670747160605
H         6.87879284378347    2.18924656254226   -0.60407274898675
H         6.36167576615424   -0.53246497245739    0.43793445246006
H         5.57781256447980    0.16428726678047   -1.00178337977904
H         3.36600498640779   -0.99053829269305    2.01547934568351
H         5.11120188974738   -1.46376381112577    2.11425691721701
H         3.31089837248948   -2.79451953267503    0.45819977167291
H         4.87185759987563   -2.38996172585924   -0.15581282364805
