36
 energy: -47.843942455000 gnorm: 0.107235013915 xtb: 6.4.1 (79825abcba525fcdf90b791dcacef51065a7a4e7)
C         1.94192035857963   -0.41948840298892    0.90634171946778
C         3.15466446484753   -0.10424958054193    0.00034785913424
C         3.17029806830037    1.35423692419447   -0.41836018366244
C         4.04583613443152    1.64993240077102    0.87585286785449
N         3.35936523578529    2.07738892661397    2.08851585556768
C         3.88279949328576    3.41892626455521    2.48070380988073
C         4.58892659948329    3.25873647296168    3.86811050672153
N         4.00579468352603    4.01387439962762    4.98812372078279
C         4.89382394506724    3.72469757197255    1.39961233068172
C         5.08566548785846    2.63164854181364    0.67442802486665
C         6.19876389402710    2.05531098552495   -0.08242742630573
C         5.80705406464725    0.57713889901831   -0.32414981333789
C         4.63261276899596    0.25347750909142    0.72042332699674
C         4.86294124113298   -1.12962034203148    1.33062494022244
C         4.52238525128968   -1.94071230369943    0.06997292005758
O         3.57897997627717   -1.23631621159049   -0.77444771542022
H         1.02228808449748   -0.17646557072657    0.36311294171613
H         1.93218996655369    0.17912258950196    1.81839312347332
H         1.93670046973187   -1.45973654601702    1.26371595373909
H         2.21490340372335    1.88139142241910   -0.51394157432769
H         3.80371986390307    1.48916567106767   -1.30678520244838
H         2.34950675139603    1.91367796876662    2.06357666925297
H         3.14102258380874    4.18973433562243    2.70544513608324
H         5.66231229161319    3.48000024079852    3.87344163078583
H         4.60712566181903    2.18716793828404    4.11042517500527
H         3.03508186493914    3.72516406345306    5.11902965931730
H         4.02725876983184    5.02499471107904    4.83754849609020
H         5.51064754398893    4.59635929341214    1.54548972597233
H         7.07942962064166    2.13525533278445    0.56592588733152
H         6.43265851060582    2.67701664843602   -0.95283805259679
H         6.68176965005379   -0.08682149917463   -0.26428697343956
H         5.39789027533099    0.47440288134644   -1.33420146326600
H         4.27062750855943   -1.36803617312775    2.21829309159090
H         5.91117241104949   -1.35728209421243    1.56853626621839
H         4.13827349662247   -2.94020145327299    0.31300278584844
H         5.44069159055245   -2.10761207105685   -0.49685065935882
