36
 energy: -47.846577754375 gnorm: 0.129132409636 xtb: 6.4.1 (79825abcba525fcdf90b791dcacef51065a7a4e7)
C         1.80997535061062   -0.09558428440463    0.26968666535191
C         3.28230764795962    0.02849837140083   -0.18615295417681
C         3.48035909383275    1.49963282395328   -0.50124465252169
C         4.06696481491301    1.78493154964647    0.94909617341936
N         3.29678959046407    2.51716233933101    1.94668382137894
C         3.95214177075444    3.81303238059557    2.29128738013025
C         4.26969341245671    3.87760509456632    3.82235397841822
N         4.87097688129247    2.60223524309714    4.24258683078150
C         5.26706305233521    3.65656240462354    1.56264172082770
C         5.29131770036584    2.54341905907083    0.84307571338191
C         6.31027094386504    1.76652552997406    0.13444749814394
C         5.84338771430281    0.29176602521860    0.19740363658947
C         4.44942054783713    0.31169588276949    0.99217432987973
C         4.20174477889206   -0.98815370820391    1.75859761223782
C         3.97839602729882   -1.95209058158531    0.58214824174927
O         3.67850291850651   -1.26804256728171   -0.65937341292662
H         1.52023882916503   -1.07509426817973    0.66527996936178
H         1.16928113996216    0.05394878172279   -0.60061118849576
H         1.63978725489736    0.53484014326119    1.15481989970440
H         2.53595191647959    2.01882333045324   -0.69705816673768
H         4.21758380332405    1.75799132695987   -1.27485861992897
H         2.30059971485323    2.47742236669159    1.71589415734766
H         3.36390145851164    4.70072975142491    2.04460246359364
H         3.33817136078488    3.97766577943536    4.39103442091004
H         4.87208325870902    4.74506085570221    4.12559267850183
H         5.64157230299728    2.38910033319655    3.60734702977842
H         4.18861276134194    1.90471261523058    3.93707205287116
H         6.03284072561063    4.41466751078511    1.54246934761125
H         7.21466737198763    1.89754119710630    0.74044026720239
H         6.57153310950767    2.17037884962694   -0.84916007708805
H         6.61484517248568   -0.20682736803176    0.80222785896631
H         5.63055081069818   -0.14703267401251   -0.78256074616848
H         3.31761780884949   -0.83673838417116    2.38391777589977
H         4.97160711796387   -1.25306955707118    2.49639964299192
H         3.13495947186549   -2.62929645692591    0.77080374333833
H         4.86583595535665   -2.53412552360100    0.32501648598123
