36
 energy: -47.845304069556 gnorm: 0.134255802407 xtb: 6.4.1 (79825abcba525fcdf90b791dcacef51065a7a4e7)
C         1.76532397007118   -0.02552873982041    0.43752651325985
C         3.20260423588567    0.13132899256244   -0.11071589974415
C         3.49865414552194    1.59701049448255   -0.36931967009880
C         4.15781228307756    1.78006608578363    1.06629563776412
N         3.32351340922093    2.53802037780013    1.99039713488109
C         4.00266933207121    3.82808168000543    2.30978139690262
C         4.20681428164038    3.81621660413012    3.86134759192165
N         4.66156745969413    2.49488687613460    4.32177458047209
C         5.26325386276039    3.73565206877707    1.48104216263748
C         5.40370101880180    2.50753696025659    1.00202286016896
C         6.37996725508371    1.73341111600150    0.23285668318028
C         5.83157633412597    0.28561098958200    0.23176145716687
C         4.43582835479377    0.28359031091917    1.02364881020971
C         4.28111187870805   -1.14607155166707    1.54373212411528
C         4.00972570828713   -1.95145264704958    0.26279382849554
O         3.55240142596326   -1.07898857956331   -0.79970065694220
H         1.46552043787614   -1.06962052413329    0.57849214423741
H         1.12010351564485    0.29175266677627   -0.38301637807259
H         1.58946970539912    0.61222197390901    1.31628079835522
H         2.63329448273848    2.25846359339831   -0.48524668632489
H         4.24384790073573    1.81905621926902   -1.14656474872103
H         2.33645059904806    2.46535480691537    1.73027386038747
H         3.56833278680908    4.79968921878185    2.06034747939037
H         3.19107046687520    3.93466052595795    4.25552833071432
H         4.88734647258604    4.61838672057536    4.17868931777339
H         5.64817419262297    2.39900923440139    4.07644209057165
H         4.13335795976273    1.72624674217944    3.90262668572654
H         5.99420292864058    4.52762669641515    1.48698892481847
H         7.39949292169766    1.79395893154193    0.63188878761360
H         6.44962837570145    2.05470795126171   -0.81153545668837
H         6.59224048547220   -0.36021964550413    0.69419756789282
H         5.54735798947288   -0.13065450238475   -0.73989537590499
H         3.51053680772242   -1.29184931954102    2.30570017812516
H         5.25378289525045   -1.49657946082090    1.91558633244857
H         3.16356514352152   -2.63236968958761    0.42387826952907
H         4.84992540897184   -2.52540666287306   -0.13352963783108
