36
 energy: -47.845418004658 gnorm: 0.134760178620 xtb: 6.4.1 (79825abcba525fcdf90b791dcacef51065a7a4e7)
C         1.83705892853881    0.08555979901140    0.62629464276852
C         3.16795106583135    0.12008047277677   -0.16014229223358
C         3.42965669525394    1.54811062980258   -0.60171189346179
C         4.15430219774312    1.77837965852452    0.79501820905285
N         3.39887696297755    2.40055900835330    1.87517476090430
C         4.01086534854992    3.71569516943335    2.22646410673506
C         3.97786941838261    3.81107092653578    3.78819015105865
N         4.41097695888974    2.59757700581140    4.49851123781967
C         5.41090162992049    3.45027914117108    1.72260112231466
C         5.42018576281776    2.47270325863934    0.82721820246176
C         6.50501371769379    1.73327830845680    0.17884948414273
C         5.87196072924147    0.33490977066313   -0.02281417372361
C         4.51458347510059    0.29941121201156    0.83244529072940
C         4.29806406046183   -0.97907986941527    1.64296147242730
C         3.94281819498822   -1.91965467006883    0.48011521515614
O         3.54145899823005   -1.16207089790458   -0.68787929388262
H         1.97280167592703    0.48359806843312    1.63773942829056
H         1.50998072746971   -0.94776323297738    0.75091773903895
H         1.05793895814733    0.61535869428466    0.05871647072350
H         2.56247029969986    2.21719188601104   -0.61287445341150
H         4.10683068642787    1.59930213849338   -1.46631741710988
H         2.39809279004805    2.48622187450473    1.67939367618926
H         3.56572399889697    4.60003430121370    1.76312823453635
H         2.94021482923444    4.03791525105887    4.05829661285221
H         4.64863767989687    4.64197201187241    4.04699516110804
H         5.39573026818644    2.77605977894108    4.70143539408848
H         4.17814005566457    1.75413147740116    3.96947012361883
H         6.27827552587735    4.06278605668767    1.90710965581130
H         7.44443258056061    1.64256249920012    0.73705016884752
H         6.79282883105973    2.14205003443740   -0.79526926182967
H         6.49993817830418   -0.52056484692286    0.26591019443166
H         5.68707248353261    0.26245226521239   -1.09926213970922
H         3.54004984950914   -0.81420040263777    2.41358560282888
H         5.18193570952270   -1.26655360363547    2.22892216933931
H         3.30606237869490   -2.77083323221426    0.75510790500078
H         4.86106005070542   -2.37875063678066    0.10796765510064
