36
 energy: -47.846018665604 gnorm: 0.138034532014 xtb: 6.4.1 (79825abcba525fcdf90b791dcacef51065a7a4e7)
C         1.76050938619244    0.08332502964571    0.55630003387090
C         3.13470659106329    0.27422178290400   -0.12640717030163
C         3.43420875696317    1.72223137856173   -0.46745025693185
C         4.19741407872480    1.84111124321666    0.92264879182106
N         3.36137707784610    2.44257560767020    1.95405349676004
C         4.08463371480798    3.62542684381089    2.50657502215638
C         4.14822988658889    3.45293027723784    4.06072240008865
N         4.63827109219603    2.12386955682040    4.45841944223177
C         5.43612444959212    3.49154421974344    1.84326998996692
C         5.41696664993717    2.61137140124476    0.85211892834601
C         6.44023463499671    1.88200613338203    0.10049923820358
C         5.86056178860469    0.45032704873222   -0.00501575384967
C         4.50454225960809    0.35162592114670    0.84743438407549
C         4.31398663725106   -1.03465930932524    1.46408559756051
C         3.89204067478564   -1.83557131108074    0.22167115146082
O         3.42483542967001   -0.94730057083705   -0.82328240333042
H         1.53512745870331    0.90254458297472    1.24764902789249
H         1.78101469153284   -0.80600714359833    1.18791335007203
H         0.98645060306259    0.15403744439936   -0.22196248171337
H         2.48611413642295    2.25643679703452   -0.59214106088553
H         4.00965382550894    1.85595602680638   -1.39465501052622
H         2.40851858508167    2.58057865129258    1.60727799318451
H         3.63874191660486    4.58069979225516    2.21757532387824
H         3.10449816891429    3.58772019958071    4.36666143951683
H         4.93239371477294    4.16143967475560    4.36140205358724
H         5.53236517761361    2.10619981181371    3.96541138532767
H         4.06094993441798    1.39055331374263    4.04075275947189
H         6.16596743196751    4.23304767556715    2.12442398990591
H         7.42950813171813    1.92221909427813    0.57171693960559
H         6.60640762455481    2.29964848689524   -0.89789982117834
H         6.55535493098363   -0.27473009310878    0.44343597398581
H         5.68115104729461    0.30575776132459   -1.07510245340105
H         3.58004804578226   -1.04344050267352    2.27457276834663
H         5.24815401703988   -1.48729485794829    1.82418645509329
H         3.02607577249026   -2.48424872841410    0.40850347212249
H         4.71259390954258   -2.36224455637271   -0.26999817115706
