36
 energy: -47.842194291943 gnorm: 0.124932642182 xtb: 6.4.1 (79825abcba525fcdf90b791dcacef51065a7a4e7)
C         1.84950707339036   -0.17666751684756    0.85540552511832
C         3.12077554683082    0.08542423385585    0.01508829562668
C         3.30356674476762    1.56478218147975   -0.26921993130553
C         4.25763488687964    1.66608176217066    0.99903971355721
N         3.63330619460283    2.24659922468264    2.18129436672048
C         3.96968432599651    3.70050958221371    2.15867440471919
C         4.16809621520888    4.10871076478311    3.65639871861173
N         4.24273173135074    3.10073891155463    4.72557036235490
C         5.29749375044744    3.67375301506326    1.43712639516110
C         5.44837139716728    2.47587019907222    0.88961902533373
C         6.48442575227649    1.78827955316486    0.11644783648386
C         5.92538961685887    0.35697154803125   -0.07248339819484
C         4.59764537937544    0.19345041273231    0.81383380539746
C         4.54485243203318   -1.25453598092807    1.30261311391595
C         3.95865362981699   -1.97455811568775    0.07744733971096
O         3.36493746202560   -1.03375615693792   -0.85079097454964
H         1.15938213157087    0.66728437790657    0.74885090757890
H         2.06319862400289   -0.26198053186273    1.92186001384987
H         1.26933243974371   -1.07225403837516    0.58860603345259
H         2.33817183478192    2.08226376372776   -0.26355292491498
H         3.80294646783005    1.67907913590483   -1.24199126107283
H         2.62954312416007    2.09554798413196    2.31121981369482
H         3.26456415149595    4.37805089933444    1.67017667988982
H         3.32344385379853    4.73874019083977    3.95767637893373
H         5.07375298925955    4.70031090383516    3.84901703145007
H         5.04056009125535    2.49041956646820    4.54184882213829
H         3.40699749281632    2.52490389705419    4.60123127929809
H         6.15581330420239    4.30884837328001    1.58371132452225
H         7.42030105051613    1.68499250391608    0.67840375643926
H         6.70059802454084    2.23028244184707   -0.86168419804716
H         6.73923401341705   -0.30428995681860    0.25909591610223
H         5.64710776283795    0.10859719455844   -1.10158175340077
H         3.88839344033555   -1.44439883474568    2.15622081543671
H         5.51649079405787   -1.69964158273613    1.55760363127366
H         3.15407157730506   -2.63657202151661    0.42381308164186
H         4.65298979849488   -2.65457854834273   -0.42044877121944
