36
 energy: -47.838432772784 gnorm: 0.151652501785 xtb: 6.4.1 (79825abcba525fcdf90b791dcacef51065a7a4e7)
C         2.09304644486638   -0.61637368123810    0.64570988208985
C         3.26980571751144   -0.07659944417045   -0.19976630761255
C         3.23597488255331    1.41299926239731   -0.48733338760725
C         3.96784106769108    1.68061288467578    0.89893668687494
N         3.25300301910842    1.95065146685604    2.14014508993008
C         3.77683657569879    3.26591551938551    2.61258130464093
C         4.23779373495298    3.12555742804105    4.10153785142973
N         4.32954803128485    4.40797171037332    4.81687024915839
C         4.97138127598132    3.57110967852484    1.73831325108546
C         5.04995872575206    2.63239018358802    0.80553104485476
C         6.09480537499551    2.11155405629425   -0.07821559843439
C         5.77535747827567    0.60898839186304   -0.27085083586302
C         4.59327256728435    0.29839798622380    0.76905818070202
C         4.80823302486460   -1.09372835056608    1.36414876874942
C         4.42760232731859   -1.95108773522103    0.14630348218276
O         3.81621678707241   -1.18961776672162   -0.92402579059266
H         1.38186124485950    0.21364484517910    0.71758454589569
H         2.30931447403025   -1.03129637522269    1.63127309553881
H         1.75175667618342   -1.45429948139462    0.02020094845285
H         2.23304883708692    1.82846618518416   -0.63339205656230
H         3.93495472275584    1.76440224531606   -1.25977822253652
H         2.23490438932896    2.05348005548695    2.12836492612970
H         3.02825951777701    4.06248254940123    2.61258234818204
H         5.19446847597424    2.59102395064577    4.11533255267257
H         3.49197979498171    2.49158741827558    4.60068742675675
H         3.63181630772029    5.01811128933969    4.38829874995368
H         5.23700291231114    4.82616142478685    4.59975073094328
H         5.61450652996183    4.43440597285470    1.68678656971255
H         7.05040120290121    2.22530954249647    0.44735215863633
H         6.08548301490626    2.75226628308249   -0.96604448345951
H         6.67143171065687    0.10448812123014    0.11912956288879
H         5.59021296639514    0.26684825641323   -1.29400067822331
H         4.08978674395943   -1.20752365538686    2.18055424230001
H         5.78916117285122   -1.34842050932412    1.78856840931592
H         3.73311437661383   -2.77718156455141    0.34839099337862
H         5.29031158600560   -2.39778990194395   -0.35231553266296
