36
 energy: -47.845083746234 gnorm: 0.130042983394 xtb: 6.4.1 (79825abcba525fcdf90b791dcacef51065a7a4e7)
C         1.72850167539037   -0.04496705400985    0.41757388171744
C         3.16919860137961    0.16104776839339   -0.10482338956256
C         3.48915355366768    1.56486043620188   -0.58407545144584
C         4.08070487615745    1.89683828149145    0.85427356102092
N         3.24006709567224    2.69676358684479    1.73629426078239
C         4.07388420358621    3.78259796838395    2.33062578757564
C         4.23304326268024    3.54356618841977    3.86903594236293
N         4.59852785805488    2.17241950223155    4.25773054461996
C         5.40199442410540    3.62140716185469    1.62737186390236
C         5.35452760060462    2.57602693635126    0.81350534966030
C         6.37410732880969    1.76932397597908    0.13995453027648
C         5.79117059216912    0.33796352412380    0.23078966715817
C         4.39535432850062    0.41612435253727    1.01869189658190
C         4.25637613336749   -0.90521617390140    1.77572632443132
C         4.12262592549659   -1.78921844617507    0.52522925462484
O         3.58025369226492   -1.10918032702538   -0.63348300043771
H         1.39335872979611   -1.02464633446387    0.06009824220543
H         1.06759017588864    0.78301119777977    0.15696772860417
H         1.70970909531394   -0.14591294351624    1.51270700321954
H         2.58079314041007    2.15259504335684   -0.75511935301080
H         4.06755597211043    1.40632922963553   -1.50551262301358
H         2.38314381972389    3.08480370464281    1.33337396993975
H         3.59106600840219    4.75456254261985    2.20001881771982
H         3.25754343792627    3.66946160479557    4.35245434659832
H         5.05562081968726    4.21432711233440    4.15320609381116
H         5.54988473430079    1.91729872039003    3.98827390590851
H         3.96469277555600    1.47208976920685    3.86620884293752
H         6.19667491659613    4.32662753880744    1.80818350900129
H         7.32092893894576    1.87470137758382    0.68286306978012
H         6.53354607088217    2.04302953240664   -0.90814080342134
H         6.50370877674566   -0.38155975207542    0.65989327777266
H         5.59789392270345    0.05344810707392   -0.80837785176317
H         3.34538281447022   -0.86461676752109    2.37911281818664
H         5.17316930476496   -1.07320079749702    2.35752671306085
H         3.48065595715617   -2.66591053659797    0.68292976292400
H         5.11143897971109   -2.17359164448034    0.26650735577339
