36
 energy: -47.807369338469 gnorm: 0.156371327852 xtb: 6.4.1 (79825abcba525fcdf90b791dcacef51065a7a4e7)
C         1.74151840714511   -0.35775378328971    0.85431159880642
C         3.05753492017132   -0.02354363544157    0.11447865382013
C         3.05351870073754    1.42679284258936   -0.33189754228623
C         4.04267171529445    1.90865095288820    0.81630940815718
N         3.25976133290392    2.75199790185293    1.71092113641830
C         4.18552198504973    3.73763149003484    2.34259421041169
C         4.75496102615353    3.22488640775287    3.70714733956438
N         3.56269752906776    2.60005635708279    4.30111776773740
C         5.42507979057398    3.65233793613594    1.48198585440225
C         5.18169084536071    2.75225096539433    0.53961817102052
C         6.23606517140728    2.01364269925038   -0.15804633958246
C         5.72328950392798    0.55290999728736   -0.14462690630500
C         4.48378687650792    0.45224214622889    0.86962222419236
C         4.82656394907978   -0.86268518310773    1.57092592761263
C         4.54809041576091   -1.78721331639363    0.37476862402457
O         3.44131964458961   -1.29878095895647   -0.42255557280834
H         1.40536754922752    0.58461708084547    1.30020494890101
H         1.74561013719751   -1.19473204189084    1.55411030010573
H         1.01892088628590   -0.66702748030526    0.08485569112943
H         2.08744937829603    1.93499597434758   -0.24108858580034
H         3.49542449848139    1.50041613339032   -1.33590293693852
H         2.86926314725382    2.22767264628106    2.49821497006073
H         3.78938793396934    4.75403762401935    2.41247338562095
H         5.29723882448475    3.93727080762684    4.33927562691950
H         5.48165922821889    2.41935830432482    3.53296087763165
H         2.81313070866958    3.24388497491323    4.55881466391759
H         3.64827524009076    1.99261229897678    5.11915570072068
H         6.25343123634838    4.33924536069314    1.54146500690285
H         7.21523144657212    2.23799451503429    0.28152720615508
H         6.28604005689236    2.31397062853930   -1.20978057702886
H         6.59632185960988    0.01998336443930    0.25954882269788
H         5.56227279576583    0.32339626469128   -1.20272477288308
H         4.26146435010840   -1.23725131493272    2.42882748486683
H         5.88612134007589   -0.94395792952933    1.85012682083231
H         4.48919653148883   -2.83086080414686    0.71079741665565
H         5.42537412130927   -1.74400276696781   -0.27402809672823
