36
 energy: -47.845450495088 gnorm: 0.135319960944 xtb: 6.4.1 (79825abcba525fcdf90b791dcacef51065a7a4e7)
C         1.76590520195266   -0.06688501697442    0.57402655632119
C         3.12884771308019    0.18161002053785   -0.11269504589704
C         3.38477292976177    1.63218032141013   -0.47751251686351
C         4.09899800415539    1.79560780831463    0.93392792370615
N         3.26486713939993    2.42234104536185    1.95174127126982
C         3.90787656155491    3.71207553817552    2.33986631774144
C         4.02734021555887    3.60989859015776    3.89693468963212
N         4.95365645656214    2.59702091578756    4.42676745590861
C         5.22936010075574    3.60369824414948    1.61435894276491
C         5.35908187637723    2.49987432651153    0.89172718750137
C         6.33922427320215    1.74544108010905    0.10805980070794
C         5.81655440297743    0.29012628086605    0.03233629853797
C         4.46624605533598    0.31829298779385    0.89898274900236
C         4.37770323680845   -1.03003918653427    1.61488590887933
C         4.16840468067979   -1.80888577141862    0.30619031431252
O         3.48328168953319   -1.06486456837866   -0.73124522755451
H         1.76497093689648   -1.09497851593104    0.95205301064133
H         0.95434526562505   -0.06323844833165   -0.15509944808599
H         1.57714753955368    0.54185195980203    1.47050278079940
H         2.49642073540595    2.25630362317252   -0.62279534440670
H         4.07266136798088    1.75742421188401   -1.32595309135978
H         2.33353020582012    2.71911133227595    1.64879523891011
H         3.27045188320658    4.56552748032687    2.09451698814916
H         2.99888282976682    3.39398529788012    4.20806131071177
H         4.44913029073948    4.54726378863194    4.28519536055602
H         5.86839268430572    2.88042813656413    4.07220945005113
H         4.67317479806834    1.73966201318342    3.94534909288467
H         5.99008996534302    4.36661956495589    1.64240986394225
H         7.28387660258316    1.78906895860358    0.66308577136159
H         6.54256049421794    2.10792519391480   -0.90490561246938
H         6.59975164354160   -0.28518211206673    0.54728934999761
H         5.69219758490945   -0.03742463666719   -1.00468819895097
H         3.55863087219225   -1.05884714023209    2.33871113328742
H         5.30877730965285   -1.30473043785323    2.12953727428697
H         3.54305298837330   -2.69432709562450    0.48086953689986
H         5.16585527360433   -2.06345084222689   -0.05811720476589
