36
 energy: -47.847254154545 gnorm: 0.132946649299 xtb: 6.4.1 (79825abcba525fcdf90b791dcacef51065a7a4e7)
C         1.85302718783067    0.07891593311820    0.52507239480601
C         3.19028957867115    0.19639111660940   -0.24231113740897
C         3.51020504289189    1.63307756947088   -0.61153979591454
C         4.14706339636019    1.75409992265915    0.84061546804279
N         3.30377272727511    2.28445421828057    1.90461628905681
C         3.96843248097296    3.54299062306015    2.35387191961716
C         4.06161447379059    3.82342981311045    3.89070127092978
N         4.75223912376616    2.76479839433431    4.64372370493448
C         5.36620476331881    3.42983837571200    1.79008618426331
C         5.41620501935514    2.43970259178851    0.90998253119678
C         6.44894264933324    1.74958031879071    0.13463284300924
C         5.87690153489358    0.31920678797919   -0.01918325839758
C         4.50247486727437    0.27384165103773    0.80791724333719
C         4.27477144082740   -1.03208697155498    1.57018895143495
C         3.91292067878287   -1.88228342042363    0.34164427476379
O         3.49326847859661   -1.09244559034434   -0.79821614709710
H         1.55511527860212   -0.97307817996014    0.59169064101965
H         1.08068434278552    0.68121923661440    0.04446360081783
H         1.82661158716017    0.37791176612166    1.58326117041898
H         2.60026819671480    2.21768018429970   -0.78492167912448
H         4.26610335776742    1.77994347865141   -1.39625377721913
H         2.31695607906047    2.41839966666999    1.66905561302220
H         3.48249223591677    4.39545467636413    1.87215232875928
H         3.04777147425952    3.95072247683737    4.28701155095118
H         4.65580403431560    4.73718572634192    4.02960986633793
H         5.62566625755738    2.40185782966220    4.25879179054998
H         4.17837824527209    1.92348960897929    4.73527206038466
H         6.13033286389689    4.12161515078980    2.10488566615641
H         7.41279736611848    1.81864217533195    0.65284100644616
H         6.63198824173649    2.29869069840725   -0.79478164287275
H         6.53071599420330   -0.47790469274504    0.36382352433119
H         5.63291700810665    0.07629762593543   -1.05824084172934
H         3.38452404052318   -0.94536528732370    2.19913350408968
H         5.11535369421416   -1.18857416289985    2.26022765503671
H         3.08968120924842   -2.58985445072562    0.50658034502425
H         4.73141271135994   -2.48639636529188   -0.05528060372019
