36
 energy: -47.840560315054 gnorm: 0.147070149537 xtb: 6.4.1 (79825abcba525fcdf90b791dcacef51065a7a4e7)
C         1.84309118915928    0.05818111947321    0.63249179909377
C         3.19759449180127    0.09849275950027   -0.11225274286959
C         3.51941670304833    1.48764624381538   -0.63131611918171
C         4.20041468984773    1.82291839286223    0.76611884728517
N         3.27573945862305    2.45513130707308    1.69874709796601
C         3.96289240012112    3.68842237212564    2.18282481060715
C         3.91888628750889    3.81780217787472    3.74183024564353
N         4.56258170653691    2.73372140859141    4.50020404422614
C         5.39095970998059    3.41590842131851    1.76956310229334
C         5.48883683564806    2.47041555045457    0.84548791197665
C         6.46756465462352    1.72695286925326    0.04966234079581
C         5.87361424966835    0.29747702514651    0.07575354688586
C         4.50721971778796    0.33904452221552    0.91625353071611
C         4.36717189085504   -0.94883177471590    1.72873006721892
C         3.97578380900853   -1.87665631946801    0.56724435642987
O         3.48881227715770   -1.21115420245694   -0.62405713301018
H         1.27414596957020   -0.77245745052867    0.20095729991135
H         1.17680093636232    0.89776509554394    0.42896388600118
H         1.86934992425329   -0.23570738440401    1.69211428693950
H         2.61595908864770    2.06902743156045   -0.84478013714872
H         4.23906782157394    1.53122075049719   -1.46133509009387
H         2.29703633195308    2.65378479192987    1.47533181370210
H         3.59062878462891    4.60149513401025    1.71101482347244
H         2.93506107255064    3.91777902728693    4.21430828889332
H         4.44378074507784    4.72621486794370    4.06829452782697
H         5.55729308884173    2.63124951689177    4.29326884224732
H         4.13015112729322    1.87460866949181    4.15317812954855
H         6.11350731211049    4.09612209994257    2.19001529808918
H         7.50405236570500    1.83642008496668    0.39030205575036
H         6.47467183324770    2.02389210201912   -1.00419526954224
H         6.71235986065893   -0.33874755645316    0.39399623030832
H         5.62059724046075   -0.07469882575103   -0.92206485510539
H         3.65093535625586   -0.93784472318468    2.55487589172001
H         5.36490145496438   -1.16931573948002    2.13263944607786
H         3.16121166138616   -2.49473400648808    0.96728948392043
H         4.79049314141246   -2.52555213148320    0.23919867865725
