36
 energy: -47.840297081133 gnorm: 0.145310499430 xtb: 6.4.1 (79825abcba525fcdf90b791dcacef51065a7a4e7)
C         1.93084840572739    0.22299074936515    0.69067596092249
C         3.23589809127459    0.12035459656746   -0.13228198452534
C         3.61336033538784    1.53107761087578   -0.54474597355032
C         4.22083987365646    1.75412028210986    0.90791046088113
N         3.26765427849597    2.36157708925725    1.82820734626985
C         3.89033985272594    3.67181288178477    2.17900942121059
C         3.93719507346953    3.83178575135252    3.73509003995110
N         4.50401116404103    2.63026245437990    4.36736134957849
C         5.25690138308161    3.63397657957543    1.53441392992209
C         5.45282391475182    2.50643847340555    0.86529222878073
C         6.50189253895927    1.73903185655236    0.19110726983753
C         5.89253145054158    0.31962586059732    0.08706543210132
C         4.53014805374927    0.26340231521558    0.93320518663027
C         4.38905303892562   -1.07623506603461    1.65695981702602
C         3.90400847080406   -1.95201821152525    0.49041460968878
O         3.48988528706246   -1.18729769180818   -0.66843744802651
H         1.52168826805528   -0.79197408534594    0.64255649226028
H         1.19348972331430    0.99625841357416    0.47016098754467
H         2.09147125559071    0.30233184584949    1.77592481521235
H         2.79472460473484    2.18692869824180   -0.86018458887151
H         4.35851957948032    1.65316072522754   -1.34384632234804
H         2.30414004969820    2.41861479069738    1.48817141773489
H         3.33605853532911    4.56197142628273    1.87034014567637
H         2.98203157757300    3.99927602509438    4.24572947297108
H         4.56999249490628    4.69490812817706    3.98387492919939
H         5.35228796120693    2.37699367924089    3.85838708490673
H         3.87889970938824    1.90912402368908    4.00035600697957
H         6.02873661205491    4.33716818610688    1.80150508127414
H         7.42460590130528    1.57944219033291    0.76159517661676
H         6.76523782903283    2.10466844237274   -0.80678973799800
H         6.55346949919426   -0.46981808460047    0.47370929073581
H         5.64428241361176    0.19285779722593   -0.97146010071652
H         3.68523341419380   -1.10322753195807    2.49334594482066
H         5.39217400906452   -1.34900899776549    2.01271668790420
H         3.04687867941286   -2.56639605025135    0.79611431012755
H         4.69990250479315   -2.63452755624229    0.18518565176526
