36
 energy: -47.836728582015 gnorm: 0.144635609508 xtb: 6.4.1 (79825abcba525fcdf90b791dcacef51065a7a4e7)
C         1.83157831053461   -0.01082534901686    0.38821983215216
C         3.24948735186665    0.10495322713672   -0.21764973946868
C         3.48302886707132    1.55708080597285   -0.59118367000103
C         4.08427612788099    1.85766939578760    0.85004442435431
N         3.24056239872002    2.38746715450567    1.91398728220772
C         3.86053046617963    3.66341524050623    2.37779040371967
C         4.23347752299777    3.56035193586431    3.89418813182543
N         5.22497709642767    2.52543050590819    4.22671174659396
C         5.08846980153122    3.74764991596911    1.50058184681364
C         5.32521487101940    2.59530278386514    0.88943576945931
C         6.31474203809962    1.84656680456105    0.11212394552604
C         5.87867145853485    0.36407566292251    0.20657762041364
C         4.44706182746850    0.38108048192225    0.93142713507376
C         4.23160552744661   -0.90866496072217    1.72420211579873
C         3.84379381551558   -1.86102171013125    0.58152509272273
O         3.62960048777958   -1.19727658374639   -0.68843443750020
H         1.09248433837584   -0.49156090239861   -0.26179136184070
H         1.45643599551055    1.00725320516530    0.50246459653234
H         1.80329991633449   -0.51866823933165    1.36349195982006
H         2.51753516271805    1.98130172325495   -0.88726671365767
H         4.17876465222759    1.77878761437747   -1.41308742547733
H         2.24659973490999    2.47769232607316    1.68785668572959
H         3.16575835783661    4.50036107659453    2.26962329103553
H         3.35100696763350    3.38297006708875    4.51942753871897
H         4.75738161018052    4.50789160206796    4.08127052210989
H         5.99371443867492    2.53826576114548    3.55466148449824
H         4.73803022790671    1.62862229023824    4.16255832500819
H         5.84150963192701    4.42181897805276    1.87471126739827
H         7.35836507356030    1.97600700073074    0.42264199738729
H         6.15030890797612    2.19301264945103   -0.91343751341315
H         6.63339960634922   -0.19219806238087    0.78146830109135
H         5.70189785588105   -0.19641080722076   -0.71688328863513
H         3.53697680057477   -0.83971965884096    2.56584924925737
H         5.11191783021862   -1.35783364260521    2.20432502575919
H         3.02828867717253   -2.51684330351375    0.91384019343448
H         4.62566670145331   -2.56035543279338    0.27814715324856
