36
 energy: -47.839949812861 gnorm: 0.152459729104 xtb: 6.4.1 (79825abcba525fcdf90b791dcacef51065a7a4e7)
C         1.76658329600514   -0.05926363804928    0.59253891718507
C         3.14326116849709    0.08757098468218   -0.09604388933766
C         3.40104942770775    1.54368514697369   -0.43666168649454
C         4.13650685744736    1.78490335813884    0.95254898296299
N         3.35451157667537    2.53241069891135    1.92939546767277
C         4.04465497986328    3.83098727430849    2.18418596380809
C         4.06919386426521    3.87356235334802    3.74839784304949
N         4.64307259845806    2.68834662519195    4.40462386591112
C         5.39276491037651    3.62407270344674    1.53287091829838
C         5.40855716800886    2.46561788330025    0.88852268071989
C         6.48957174529047    1.64092569529927    0.34513196186132
C         5.79502560162505    0.26915948698134    0.16423937665401
C         4.41642154148774    0.28853404805346    0.98538342796276
C         4.28777954937310   -1.12634405850959    1.55100526939489
C         4.08142400030936   -1.89896251015201    0.23815714466648
O         3.44867080938613   -1.12148326445755   -0.80797047847609
H         1.82543345212571    0.43352587579196    1.56905121836463
H         1.50126391453345   -1.10608855781422    0.74755754965763
H         0.94712852977326    0.26015012391602   -0.06801276367153
H         2.48981309914707    2.13103177930224   -0.59311908286825
H         4.18243121930182    1.64274495664094   -1.20370640534316
H         2.37901150213207    2.72711941166314    1.68913411343728
H         3.61243863929654    4.76199568653274    1.80828824567100
H         3.04093621842701    3.98109488977952    4.11208161171553
H         4.58243411527351    4.76728711297911    4.12937976985229
H         5.63138271562209    2.65642524905863    4.14967772180224
H         4.12618193417865    1.84496666636701    4.14571813912864
H         6.27744666102292    4.21653415018429    1.69982404974072
H         7.45475359447488    1.72341958519485    0.85888677087997
H         6.61600163642710    2.10311374458788   -0.63936636093615
H         6.47480315694816   -0.44513876695963    0.65130691969062
H         5.81247850261066    0.10686056093775   -0.91813231870701
H         3.49250328367440   -1.29274916100843    2.28276849517542
H         5.15986732236404   -1.44271061286213    2.13972878907069
H         3.33732686071095   -2.69862677493257    0.34969381178014
H         5.02395205064359   -2.31065347447552   -0.12869768214903
