36
 energy: -47.854027739935 gnorm: 0.129245122169 xtb: 6.4.1 (79825abcba525fcdf90b791dcacef51065a7a4e7)
C         1.79029983712537   -0.07455312301891    0.46877581454213
C         3.21411202166837    0.09459837994373   -0.11009834272371
C         3.41719306898697    1.51079049250953   -0.61596563576650
C         4.13637624987682    1.87720870873243    0.75425457000724
N         3.37932741301396    2.52070906194576    1.82069596588066
C         4.10955999648024    3.73203140564196    2.29711574222609
C         4.21023292183030    3.69442590770297    3.85840508360582
N         4.22313890906864    2.35826942503613    4.47421756723924
C         5.43431735293619    3.62322734678504    1.57766806722997
C         5.38907010552818    2.59566114862327    0.74129969813864
C         6.29070823108713    1.81536276762837   -0.10850401405525
C         5.88397597579506    0.34587164512033    0.15986835848217
C         4.48616489241806    0.40766669566444    0.94568489956501
C         4.33922342932167   -0.85211799557495    1.79991413932753
C         4.08897453223140   -1.85049062464721    0.65810870460767
O         3.67854583332747   -1.18661226262691   -0.56256626468221
H         1.69746793518669   -0.94191163833554    1.13131076887525
H         1.17414113927598   -0.41300408718085   -0.36553046437060
H         1.44613192428448    0.83030893842420    0.99091840754919
H         2.50579974289341    2.08621829761247   -0.81103403961208
H         4.12197804396934    1.58655976895398   -1.45636144708659
H         2.37707000417298    2.69017756512942    1.70238318695207
H         3.58853299403077    4.65481412137340    2.02899328310838
H         3.32565892738470    4.24906645184510    4.19164018806263
H         5.10167522729463    4.26149902539043    4.16017557516722
H         5.10030808734681    1.91607413108653    4.19527141826679
H         3.54643704884843    1.74590770847195    4.01314749549272
H         6.18755116947366    4.36850873460605    1.77449338970203
H         7.36544489209412    1.92073038713882    0.08166440897979
H         6.20585513004899    2.09173874968241   -1.16456061803650
H         6.69449560263720   -0.21120848567911    0.65208171182629
H         5.72995024592243   -0.21361650419479   -0.76826046709216
H         3.46654131958977   -0.78551624122526    2.45537012142769
H         5.25774935191523   -1.10711142274623    2.34627366457875
H         3.42011292907012   -2.65778556962582    0.98442594624491
H         5.04559261446977   -2.34114217376976    0.46686556665837
