36
 energy: -47.844117150833 gnorm: 0.133900301021 xtb: 6.4.1 (79825abcba525fcdf90b791dcacef51065a7a4e7)
C         1.74000185943105    0.09716815301443    0.57198548139246
C         3.13307002288378    0.10472216145166   -0.09902323274716
C         3.42942832144753    1.51868021007295   -0.56339175678665
C         4.14412466523211    1.81769117845597    0.82541770311928
N         3.27415737472433    2.47014636410672    1.79597014115726
C         3.97765549347748    3.71080754173942    2.23570582644847
C         4.06500724570786    3.71586882826760    3.79824147594304
N         4.60304999366061    2.42152210142971    4.24532342522266
C         5.36343455514555    3.61336317000360    1.64026791525065
C         5.39963288807556    2.52939698412378    0.87793031287198
C         6.50946837763973    1.74538805039678    0.33242284959320
C         5.89639556508086    0.36306445337722    0.00048578597126
C         4.51941876203331    0.34198642449021    0.82431386140988
C         4.40265266576601   -0.94313689888088    1.64478968546642
C         3.95388059714220   -1.92621542410718    0.55151372979258
O         3.45139599682702   -1.20314561191905   -0.59910038950451
H         1.67340914395483    0.75392965766658    1.44611983060086
H         1.50794510682793   -0.89459010697309    0.96292381862185
H         0.95091397611559    0.42671429022303   -0.11982334086508
H         2.66813245925995    2.21647973238054   -0.92850964475507
H         4.20909200720742    1.48729961933385   -1.33790305357274
H         2.37178019993201    2.85240309411784    1.50129638696737
H         3.36117459173174    4.58384210072057    2.00625282079163
H         3.03984932105343    3.82564249498696    4.16991860433292
H         4.63415513367691    4.53306505904951    4.26253420110252
H         5.60390480355704    2.34331590405343    4.05838268832629
H         4.19385981490118    1.59955647110064    3.79539699787786
H         6.11331220154728    4.35660651881089    1.85664388836174
H         7.29854268864065    1.53383602305567    1.06381379585149
H         7.00196624662996    2.19730904360256   -0.53478678410664
H         6.64578162965906   -0.34699079539654    0.37969072888047
H         5.70433520335434    0.04208498310340   -1.02823139294669
H         3.69620989497066   -0.78491554177656    2.46426330603819
H         5.38630199531986   -1.21890203611623    2.04927433654023
H         3.16835621131963   -2.65482713118657    0.79163940010977
H         4.84478316655636   -2.40654338476694    0.14162508917572
