36
 energy: -47.844360846175 gnorm: 0.119451256974 xtb: 6.4.1 (79825abcba525fcdf90b791dcacef51065a7a4e7)
C         1.74304359371057    0.05199285140777    0.43663195057777
C         3.18751113234312    0.09678346860318   -0.11332798923750
C         3.51449663706686    1.50540041832176   -0.57335238479376
C         4.13095665403212    1.74377099999766    0.87307301900417
N         3.28849955086973    2.41682136085864    1.85377778406681
C         3.94487848216236    3.68525592270761    2.28708780148037
C         4.00742622812854    3.71454748049570    3.85054655828976
N         5.00420729569109    2.76179451720383    4.36376676262454
C         5.28115628212012    3.62522277726107    1.58339552301974
C         5.34940107135279    2.51881640734697    0.85630613949215
C         6.43023978508193    1.77344802318190    0.20808040942089
C         5.92035780763438    0.31829099880178    0.06880627186454
C         4.53517853745999    0.27573414924835    0.87792257856570
C         4.23445222100049   -0.99594615077740    1.67211995197040
C         3.94624760721751   -1.97276582047838    0.52066286284069
O         3.37227180939758   -1.24420426581990   -0.59243344597402
H         1.48340070242584    0.62714889111531    1.33198786203836
H         1.37253694936872   -0.95582200541791    0.62976815484919
H         1.26661300145677    0.53221713803332   -0.43069630686840
H         2.75390137373850    2.27147823944329   -0.75889535118761
H         4.32189431137123    1.61406354262952   -1.31161333113166
H         2.30318975166520    2.53140373491449    1.60223693954399
H         3.30547521612192    4.50700839765994    1.95426203941080
H         3.01375953033844    3.41529599775638    4.20299221118232
H         4.20650560499179    4.73639719731671    4.20196833318636
H         5.90340509460844    2.87881477273964    3.89416802813422
H         4.74864147227005    1.78793065023530    4.18551648343156
H         6.04358700349967    4.38432567105373    1.64670260494072
H         7.28973124344288    1.78802893923617    0.88880576102975
H         6.77318178074735    2.24160617998876   -0.72039033494958
H         6.73433432485087   -0.28007995803160    0.50348855354370
H         5.76883851540381    0.02346760271151   -0.97440753115577
H         3.40941503159974   -0.82094542899737    2.36805149720054
H         5.04781001725942   -1.41269048488841    2.28203259191021
H         3.25191946453831   -2.73067173839266    0.90675992952824
H         4.86450973403056   -2.48859507849074    0.23231262630600
