36
 energy: -47.842810200267 gnorm: 0.145385443694 xtb: 6.4.1 (79825abcba525fcdf90b791dcacef51065a7a4e7)
C         1.76523563553308   -0.04990674548469    0.26856413958275
C         3.21237940783728    0.09276781585602   -0.25714241875767
C         3.51356956072886    1.55726712525741   -0.51650674615960
C         4.09744581178563    1.75018978685191    0.95007408822990
N         3.26094473115332    2.39656096358997    1.95355944767489
C         3.85342444863504    3.73177058649040    2.25966436642680
C         4.02858740313374    3.84747498743764    3.81050414217214
N         5.08803934014468    3.01676372935167    4.40395684898292
C         5.23419355305307    3.52752765044010    1.67984819879072
C         5.36178976096305    2.44748241865102    0.92177627454979
C         6.40372057023033    1.68443834129773    0.23175668844757
C         5.90395007308149    0.21914410212365    0.23283953046515
C         4.43749939346658    0.26749548273438    0.88275217088523
C         4.24691587311683   -1.03085083874425    1.66781986572712
C         3.94941178782576   -1.95427429008153    0.47539694863227
O         3.61026746263290   -1.20738004919533   -0.71890771894439
H         1.57856490597187   -1.00854013902538    0.76460561035573
H         1.09105780270124   -0.05382774904673   -0.58918664441713
H         1.42171816708899    0.60434834662811    1.08330690420168
H         2.54224212581744    2.04972255149078   -0.63405343078440
H         4.21153662428742    1.83492413107776   -1.31929964364158
H         2.26347036644337    2.48263875419234    1.74172733492373
H         3.30584970000940    4.58854684705037    1.85843744671546
H         3.05814770078220    3.44821955064119    4.12670786599192
H         4.11446275176201    4.89633347193700    4.12645988917335
H         5.99011099071126    3.40808143542304    4.12843808512974
H         5.10879904080902    2.08108734729761    3.99216001491239
H         5.97558257809111    4.29076048145890    1.85120645397647
H         7.38261590542505    1.75063271276228    0.72135595426949
H         6.56361674163351    1.98191507459500   -0.80977106091698
H         6.56492801242499   -0.47885828635795    0.76711951003388
H         5.79572559651238   -0.24055902030710   -0.75464944916437
H         3.39815174370940   -0.84924941534923    2.33284069340679
H         5.12193979819778   -1.28307655018255    2.28258443732315
H         3.04124462843009   -2.55313110661010    0.62434930299403
H         4.83612444071600   -2.51800537192412    0.17811098987570
