36
 energy: -47.843273036565 gnorm: 0.136176854686 xtb: 6.4.1 (79825abcba525fcdf90b791dcacef51065a7a4e7)
C         1.74896462006986    0.07836083614062    0.54049925488131
C         3.16313016723140    0.14824222184045   -0.08095151547110
C         3.54839132924627    1.52587855508893   -0.58734632158554
C         4.12826064398717    1.95186986876006    0.83084729363262
N         3.19825279294212    2.67426617353298    1.68976632515218
C         4.02326724188000    3.70807987327619    2.38121238083596
C         4.20899575908013    3.27172360586389    3.87261163908630
N         4.65299511157216    1.87427610857884    3.99389968815047
C         5.32340066397327    3.72013824601492    1.61054187450151
C         5.39603119626084    2.64342393777986    0.84056605368737
C         6.39272881111113    1.92061751735886    0.04802079433267
C         5.81480851193041    0.48881722058860    0.16122441725719
C         4.43260252186201    0.46701584688034    0.97622957665796
C         4.33972685807405   -0.81680542030491    1.80178028042841
C         4.07286058553867   -1.80325679087421    0.65339525330614
O         3.58371441489516   -1.14528502028193   -0.54119369505159
H         1.43725114322376   -0.95864722018492    0.70581750067509
H         1.05105753170135    0.42824843073501   -0.22158468507586
H         1.48731028505763    0.64806297645224    1.44428920428402
H         2.68485464520082    2.15881770351275   -0.81864495715076
H         4.30275880064387    1.43764317029574   -1.38225021278807
H         2.40104370045488    3.06420879803562    1.18021768468377
H         3.52694182804517    4.67706111873207    2.47931011351750
H         3.23258073949149    3.20421717139009    4.36576426552535
H         4.83674892305426    3.94340121795540    4.47434404560570
H         5.48843945633844    1.79084801953195    3.41265455917292
H         3.88476921208551    1.31194297743188    3.62092742836078
H         6.12840050101351    4.42276801053420    1.75136947982208
H         7.39632186563557    1.91058185014207    0.48963773822250
H         6.51104169341157    2.27677605350217   -0.98056680667371
H         6.57075097672816   -0.05684375068509    0.74462771943048
H         5.63575416552371   -0.00562754510120   -0.79879534968439
H         3.40210088001809   -0.70613103801681    2.35336083669192
H         5.06862630134570   -1.02545658233735    2.59701016465433
H         3.41977215426330   -2.62118964567987    0.98512596555603
H         4.99177660978858   -2.33289638854503    0.39357555202458
