36
 energy: -47.845448552932 gnorm: 0.138039983385 xtb: 6.4.1 (79825abcba525fcdf90b791dcacef51065a7a4e7)
C         1.80364703356924    0.03389162148989    0.39447725171444
C         3.23747450166915    0.13891333889705   -0.17478357383606
C         3.50931156787592    1.59496912995158   -0.50455602566515
C         4.12494752211846    1.80132758024237    0.94713219812881
N         3.32079561013648    2.44683137805881    1.97726687234031
C         3.97996800860324    3.70972595666534    2.42235818576746
C         4.13382395706825    3.71035203195774    3.97976036963754
N         4.79366319452325    2.46499383336311    4.40213562243536
C         5.31062772149921    3.60082013575469    1.71390241790944
C         5.33898322384807    2.57954146975594    0.86913175293989
C         6.29908249482734    1.82208802950376    0.06386354926113
C         5.96613066876574    0.32340199740098    0.26371918266292
C         4.50156804779967    0.32621628407560    0.91965402080346
C         4.15300608090764   -1.02018114999879    1.55532324767011
C         3.95315519106138   -1.94499088540350    0.34376282855602
O         3.51362909844514   -1.13600769587530   -0.77498494927392
H         1.50226791789584   -1.00712667307329    0.55363962358338
H         1.16479235964043    0.30949246186089   -0.44586580058838
H         1.58218042237217    0.57950143600164    1.32352098632451
H         2.67097479290213    2.17116818525620   -0.91074900532562
H         4.27799990755439    1.72745788010291   -1.27934175297574
H         2.31755654112983    2.42670301560675    1.77640966423529
H         3.46750170069448    4.63591187904700    2.14951272051289
H         3.13535833481698    3.74122551533028    4.43059975120205
H         4.80675844831589    4.52816004871722    4.27243074616851
H         5.77591444803500    2.54361228575362    4.13422703348325
H         4.33885813702123    1.71148612279587    3.88167776778323
H         6.12617616844193    4.30035588926556    1.79802243680750
H         7.36058803711264    2.07248861636361    0.17713660087839
H         6.03822105538929    2.10230797087419   -0.96193728820886
H         6.63273004863492   -0.02250506499718    1.06717912977450
H         6.05987161733157   -0.26331383831703   -0.65560187195735
H         3.27959018263762   -0.86849353539307    2.19545443629517
H         5.05018624790291   -1.43649923792096    2.03382846737999
H         3.17960064951460   -2.70971263172844    0.49342223842809
H         4.89491005247328   -2.39786640718683    0.02685183124313
