36
 energy: -47.842336894802 gnorm: 0.134543074412 xtb: 6.4.1 (79825abcba525fcdf90b791dcacef51065a7a4e7)
C         1.71062586069557   -0.02486860173753    0.29647454001835
C         3.18026309313877    0.07335188260033   -0.17412909178668
C         3.48412630228239    1.52040709933118   -0.51536510345340
C         4.08139514389271    1.77543286375481    0.93626217603382
N         3.38180306613678    2.41520718481578    2.04340835437646
C         4.01839760412553    3.73231179162895    2.33921238904924
C         4.15962180360904    3.92951309794205    3.88528514274634
N         4.89779197975413    2.89068702079712    4.62057480224127
C         5.33679938324483    3.61696513666064    1.60918692365151
C         5.32921022212541    2.50117435119299    0.89336232055118
C         6.35373580749744    1.72318046281366    0.19403696511225
C         5.77128644494550    0.29249560241026    0.09034249976952
C         4.41501208009029    0.28979792308164    0.94808056824114
C         4.29342915401882   -1.10441409073674    1.56431701356898
C         4.03055564988523   -1.97426231970774    0.32441636869295
O         3.51069982415131   -1.18786941507184   -0.77584254865799
H         1.13559745377376   -0.17023240882261   -0.62444500417981
H         1.39642256124019    0.88665439024137    0.80703273942162
H         1.56280301781305   -1.00097168747971    0.78148067612344
H         2.61135417156186    2.16496771919913   -0.66575473001192
H         4.30222199872226    1.67475707114836   -1.23343436763062
H         2.40377250860737    2.23015786425803    2.28100113457920
H         3.46832795426440    4.57093682734499    1.90445022341468
H         3.13389978696135    4.09865864352816    4.23231113956960
H         4.66405725724081    4.86345073942738    4.16920780867677
H         5.64883017340187    2.58186083865448    4.00142908507143
H         4.31328748485559    2.07659209475747    4.82331067975989
H         6.09062024348067    4.37948507646284    1.50026887928461
H         7.30249295821597    1.84946842304967    0.72904765727476
H         6.57343438670798    2.10380594583500   -0.80880700599271
H         6.51873302503055   -0.39083569669439    0.51922038891936
H         5.49380398537979   -0.07049229005656   -0.90435207010953
H         3.45307922757718   -1.18160940485668    2.25964804268688
H         5.18182398738758   -1.50098619711376    2.07491017877231
H         3.30862997505160   -2.79580418721033    0.42176209652959
H         4.97450566628810   -2.42212925434492    0.00691895848053
