36
 energy: -47.845632211443 gnorm: 0.138653564961 xtb: 6.4.1 (79825abcba525fcdf90b791dcacef51065a7a4e7)
C         1.79876387214405    0.16943142336765    0.38980372430875
C         3.21611313377113    0.12659271363627   -0.22682790957391
C         3.43781256638378    1.56525418959187   -0.65560086789504
C         4.05247581709834    1.87874651871319    0.77719423705942
N         3.23322265286620    2.47578130404294    1.82451778203119
C         3.98159727377237    3.58252913320194    2.48977105398562
C         4.18089100804885    3.44254807600330    4.03568855833071
N         4.95071230502646    2.27012443295663    4.48010243801116
C         5.28769398760860    3.62370600560124    1.73027045229951
C         5.30313983687924    2.59032154432527    0.90001168348175
C         6.28472900848450    1.93667450020801    0.03213412603942
C         5.88674951843781    0.44923138549755    0.19333064681990
C         4.44172675531830    0.41100640670301    0.89021669064131
C         4.26931923156536   -0.93625679565024    1.59272247727017
C         3.97539675380434   -1.89652042268329    0.42885159602627
O         3.50486502377390   -1.18271308542739   -0.74089733370232
H         1.03846447791250    0.61359235065152   -0.26176900677130
H         1.89940628568182    0.74799867723711    1.30925932430080
H         1.50257686020103   -0.85231771157028    0.66937795067931
H         2.56860699634396    2.18071388459538   -0.91152601168704
H         4.20549639853094    1.65443312771116   -1.43754499053611
H         2.42092697133340    2.85130800973927    1.32813808528342
H         3.32655438779252    4.45380785964456    2.40804638469476
H         3.22226539969040    3.35541814709807    4.55970023883023
H         4.68350652709101    4.33426534292734    4.43509397991407
H         5.93469965614694    2.23555225128224    4.20927581833908
H         4.48976247151667    1.45601833216511    4.06748348852298
H         6.10561070874892    4.14941554598886    2.19523006655031
H         7.36640062509996    2.05931664116033    0.16355207297942
H         6.10099058522285    2.30868944311437   -0.98112020901264
H         6.60359594604281   -0.14370261816485    0.77994362651108
H         5.89747886767961    0.02549989330172   -0.81588218274535
H         3.42130645907227   -0.91968588283833    2.28281823132153
H         5.11313196521837   -1.31911364238762    2.18316380896788
H         3.25033531911530   -2.70672150102813    0.58196609657728
H         4.88916818712515   -2.37460795730965    0.06984586227274
