36
 energy: -47.842507688925 gnorm: 0.136706839081 xtb: 6.4.1 (79825abcba525fcdf90b791dcacef51065a7a4e7)
C         1.78290357346558   -0.25873593236137    0.45971115723780
C         3.12753923352085    0.15366952328779   -0.18280366006734
C         3.32825825742890    1.63233569806446   -0.45848805643424
C         4.08905622164161    1.78813105717022    0.92928143738952
N         3.37265192587262    2.46508219368185    2.00306662641801
C         4.07562419542825    3.73939397752080    2.33393905095032
C         4.21991952787099    3.96749264703134    3.87547184031755
N         4.74597258631905    2.80768147640319    4.61222953973284
C         5.39406401161594    3.54232983861180    1.62168394881472
C         5.38306603348917    2.42875758871362    0.90245710314507
C         6.40866982734669    1.69316636141361    0.16014629196450
C         5.84319440684401    0.25253236747652    0.20101359463374
C         4.40223064794165    0.29819078813510    0.90581191678954
C         4.14906974319705   -1.08023380708988    1.51754043421415
C         4.08774685737718   -1.81245419410991    0.16728682290912
O         3.54899193778660   -1.00950928634846   -0.91172020414060
H         1.69488979433126   -1.34998273769214    0.49597540854430
H         0.99439227982072    0.16537880863726   -0.16370217311171
H         1.73681735225814    0.11600067013797    1.49281730767938
H         2.44706276272575    2.26381051773311   -0.61514250022509
H         4.08487801569172    1.69744235066976   -1.25348212465420
H         2.39450600701406    2.26029401144793    2.22336111488380
H         3.58837128835866    4.54680889285310    1.78117109442426
H         3.24973188152550    4.25161904160640    4.29873418540130
H         4.94214998340266    4.78985773141681    3.97245401311766
H         5.62710071559609    2.52849257491977    4.17813258034423
H         4.14494249541223    1.99284523491936    4.46974230350148
H         6.18138069442846    4.24216518124404    1.84951837082981
H         7.35911674442527    1.71818769950630    0.70636031574838
H         6.50924858176581    2.01228527056208   -0.88239206681957
H         6.50619151080607   -0.38950810709505    0.79915499576775
H         5.68775006551778   -0.14896404588349   -0.80537185242199
H         3.16429673305110   -1.07045242148569    1.99268123744675
H         4.86772122013939   -1.42266021046462    2.27484116037026
H         3.34641061704079   -2.61963200465179    0.23413336252347
H         5.04025042889772   -2.21411020985815   -0.18462283850395
