36
 energy: -47.840083504969 gnorm: 0.137898811858 xtb: 6.4.1 (79825abcba525fcdf90b791dcacef51065a7a4e7)
C         1.83118333934262   -0.06323776965136    0.68053512142191
C         3.16169259313322    0.04671785821486   -0.09959534040507
C         3.36620248228734    1.50578767229472   -0.46296114171526
C         4.06481601066541    1.80477824071520    0.93401197890280
N         3.23604176007735    2.58280667799026    1.84632655451600
C         3.93297819457844    3.81400178614876    2.32167426857487
C         4.13727531119769    3.68025250037633    3.86749036801647
N         4.74788486472611    2.43357094646330    4.35498066835154
C         5.26151930375446    3.64522864351550    1.62101782301050
C         5.29107289768413    2.56350648044042    0.85521409272737
C         6.32561914893797    1.91515619435508    0.04692012107538
C         5.88836493298049    0.43549122128421    0.17443213768308
C         4.46972397527672    0.33700917223014    0.91804574770658
C         4.34606921481730   -1.05790136474004    1.53228590239128
C         4.20832733823570   -1.93954615979145    0.28055841316925
O         3.58846361604689   -1.15173495710039   -0.76555632858164
H         1.57808226966547   -1.05983391648088    1.05818190038582
H         0.96875711724947    0.38455454723649    0.18458087363019
H         2.02206304986711    0.50224006009137    1.60447210374845
H         2.43065022980740    2.06508559046430   -0.57128678543725
H         3.99884446845812    1.69958964661431   -1.34098896847126
H         2.24334404929432    2.73827977699542    1.65237612436277
H         3.37059574358963    4.73061279177385    2.12562078558767
H         3.15396615724301    3.77251838046794    4.34260407153555
H         4.91406786120985    4.39946696179326    4.16182116794855
H         5.67122156994097    2.31506663978678    3.93524330196128
H         4.12631807169152    1.65835174408682    4.11375919598616
H         6.09564795920714    4.29121654976712    1.84118756886952
H         7.29013382188352    2.14364461560647    0.51578014636075
H         6.33484318320544    2.06506083278586   -1.03764559256899
H         6.65513451281823   -0.14582436345137    0.70705856937788
H         5.75731526948305    0.11406995847772   -0.86368557356107
H         3.44106770677345   -1.16394307919547    2.13673592602460
H         5.15079159079406   -1.54110507044642    2.10338689184365
H         3.53440769465031   -2.79958556692327    0.38894867763629
H         5.16325516019872   -2.36185091318318   -0.03913298308849
