36
 energy: -47.849765759963 gnorm: 0.127578506974 xtb: 6.4.1 (79825abcba525fcdf90b791dcacef51065a7a4e7)
C         1.77816963377984   -0.11896433555247    0.49579391495845
C         3.09354580524372    0.26208092271718   -0.22221632166764
C         3.35414206631546    1.74061800562676   -0.44303619372268
C         4.11606873858566    1.85661002037768    0.94800792594476
N         3.35382347945667    2.41539898235363    2.05762495281151
C         4.04579970420737    3.66734011177963    2.48345302569101
C         4.35656997547559    3.62751849622676    4.01675328155571
N         4.73409176632631    2.27161217325594    4.44535689296239
C         5.38831532521285    3.59268982564367    1.79316000347105
C         5.37663826761777    2.56116032321670    0.96053634454531
C         6.45905906931231    1.81210121282919    0.31924166617034
C         5.81289795079763    0.43918009669940    0.01195933619930
C         4.42035740905473    0.37136255365318    0.80658736875733
C         4.23097126944083   -1.02915904127493    1.39056426840172
C         3.89679736544453   -1.79224883106002    0.09862237860073
O         3.51013555471953   -0.89176683875198   -0.96855071170119
H         1.70696407764264    0.36002414710955    1.47833191659335
H         1.72979723451956   -1.20346783098129    0.60432890547203
H         0.96970776614179    0.04452581059731   -0.23188745076857
H         2.46908640157816    2.37864306036150   -0.54002657308786
H         3.93041446669317    1.87035716324332   -1.37029335011040
H         2.38081919349856    2.51303792426752    1.75601811606174
H         3.47682796026970    4.58048198817331    2.29024383526367
H         3.47770320477720    3.95236560527115    4.58526930760400
H         5.11857143537221    4.33479503297882    4.37230975641181
H         5.64885869465927    2.08089979466339    4.03352725152770
H         4.05414720108944    1.55763654694547    4.17441025178021
H         6.18448361398991    4.30220111622808    1.94890178473682
H         7.30746889614163    1.61947823644658    0.98664139730105
H         6.81837298631228    2.32411105379891   -0.57941216531676
H         6.41579802318521   -0.43641604574628    0.29373445199240
H         5.62009710793453    0.27380336199686   -1.05277180466097
H         3.37606099393550   -1.14991573394414    2.06151780494604
H         5.09235795293006   -1.43275557258701    1.94042159576655
H         3.18336478725632   -2.59740175303160    0.31845559948871
H         4.75518872669387   -2.36123594472294   -0.26448775892591
