36
 energy: -47.850086427973 gnorm: 0.115333021426 xtb: 6.4.1 (79825abcba525fcdf90b791dcacef51065a7a4e7)
C         1.76686092826221   -0.07913681008169    0.33856793775223
C         3.19271589444014    0.14092989665596   -0.21772057761766
C         3.43211537524147    1.61016130854782   -0.51232314212654
C         4.04932324315463    1.74399761248270    0.94717417873705
N         3.20812850299150    2.33779858229059    1.97882562406668
C         3.82730763608488    3.62287413294215    2.41781909399319
C         4.18653590882776    3.70412585605885    3.93884730144117
N         5.39147878892393    2.90826912070435    4.22068134623120
C         5.12357561565678    3.64656595177194    1.64093214182715
C         5.25309281238699    2.54137054604273    0.92036289556029
C         6.31502379522758    1.80683521549094    0.22989664509110
C         5.85007933424870    0.33508794839142    0.35091579925968
C         4.37375150756429    0.25654237210395    0.97500620014671
C         4.19996699381625   -1.13409159440852    1.58680108994043
C         4.03981761441078   -1.92964304991183    0.28121994459891
O         3.57559713517104   -1.10651976244702   -0.81705186950893
H         1.61843523683405   -1.15487974689160    0.48219268577452
H         0.93907793809015    0.32653452636239   -0.24493326335762
H         1.64540721759358    0.35338877473711    1.34257511045452
H         2.60923297751930    2.31121650020884   -0.68893799193077
H         4.20301872205758    1.84809120580163   -1.25920020638142
H         2.29179147916659    2.52513106172056    1.56353008616533
H         3.14976304502616    4.44790016574097    2.18297426272899
H         3.37952891613320    3.29531513917961    4.55752042215217
H         4.32101570286044    4.78082243639811    4.11189754509317
H         6.14887747745235    3.14529370224483    3.57807728995715
H         5.10031725060706    1.94968794628330    4.01612089366249
H         5.81706925850936    4.43661212842114    1.87850176431432
H         7.26454749046341    2.08261767579566    0.70389456749713
H         6.42493541318413    1.98012916445380   -0.84561622022712
H         6.51535656650454   -0.23145367080858    1.01874146001279
H         5.79579693259369   -0.12721459609376   -0.63979294040985
H         3.32047840227402   -1.25366067274438    2.22542105754955
H         5.03533255333837   -1.55478890684617    2.16334112544896
H         3.26123353671118   -2.68807663014356    0.43668457918378
H         4.98068635519177   -2.38419836048776   -0.03591806753642
