36
 energy: -47.843377620755 gnorm: 0.131112840726 xtb: 6.4.1 (79825abcba525fcdf90b791dcacef51065a7a4e7)
C         1.66527837597414   -0.11150240953991    0.36669289053708
C         3.09747194189037    0.16704639512455   -0.14534305407033
C         3.37694267626002    1.62850330611687   -0.44330870771371
C         4.06351629290715    1.80427209623218    0.98031770602941
N         3.35517481458015    2.42608799638160    2.09212265593992
C         4.00529491329139    3.74725444408472    2.33580343039150
C         4.25069493518994    3.87340033816020    3.87627077962016
N         4.86620711064066    2.61178319099039    4.31692104129683
C         5.28971086740450    3.63924533508105    1.54647775639193
C         5.33547125438257    2.48331985434817    0.89902588688019
C         6.38302327477430    1.69618621095574    0.24554395920107
C         5.84490537913661    0.24453919589203    0.24252750195407
C         4.39163293191043    0.31862750207529    0.91907182953525
C         4.16670907597123   -1.04714123782102    1.56902712275012
C         4.20027321408777   -1.83551108450280    0.24977032595876
O         3.56901446557496   -1.03269177502048   -0.77795878368399
H         1.45118074530791   -1.14302340681558    0.66670582179096
H         1.04022246870771    0.05413629905936   -0.51202008501566
H         1.36754559179739    0.64689349495873    1.10564527753642
H         2.54768369573279    2.33391152545717   -0.56387162060771
H         4.13770753403531    1.71820463606644   -1.23192677665958
H         2.35924692038664    2.53075709125377    1.88138726460962
H         3.39290725023801    4.55946514950184    1.93557618341109
H         3.32574608089473    4.00569226097925    4.44908085825459
H         4.95622077021079    4.68057730583438    4.11711382668561
H         5.67131504949010    2.41694508827842    3.71975044662153
H         4.30926263777155    1.76599750450483    4.17565067390706
H         6.08556543501775    4.28378092712230    1.88223825023799
H         7.26613921789056    1.70645271041734    0.89541016094035
H         6.58786168192161    1.96147322642429   -0.79681073776589
H         6.54992156838890   -0.36779008484585    0.82352608091352
H         5.81542611108280   -0.24196112061572   -0.73758599025254
H         3.22852565296269   -1.13010005629673    2.12451079624547
H         4.98461328537508   -1.43957559600265    2.18890472323276
H         3.51870462184494   -2.68807727222295    0.36884619144652
H         5.19334638078257   -2.16033737050074   -0.06760107257013
