36
 energy: -47.837419681357 gnorm: 0.135227422467 xtb: 6.4.1 (79825abcba525fcdf90b791dcacef51065a7a4e7)
C         1.79270651299910    0.17032828444261    0.46484888863112
C         3.22821701141835    0.10035555595740   -0.10555626520887
C         3.48068117998251    1.50196561699493   -0.62947873607880
C         4.07942139717714    1.85942150274857    0.79976069264323
N         3.19770751519802    2.53277547793386    1.74511124132646
C         3.91226739576055    3.75557489219864    2.21594335499346
C         4.14415320378039    3.57636124481943    3.75324129056174
N         4.96557904909643    2.41390052799812    4.12559910869566
C         5.24703870927213    3.66418443882512    1.51276593907610
C         5.36540569443546    2.51324793571247    0.86562933433164
C         6.35281515272753    1.72449886065172    0.12611571212865
C         5.85627149265054    0.28843213805933    0.42279003102103
C         4.39280879009145    0.39452868696679    1.07257642599623
C         4.07339392682922   -0.90865169133038    1.80609644541895
C         4.12387578156677   -1.87685309222211    0.61314647615994
O         3.63195752403758   -1.19762573456554   -0.56833571778000
H         1.52339508400500   -0.87670075828615    0.64115161363808
H         1.01602971413452    0.53411912172108   -0.20946330218244
H         1.87434018174253    0.54673788553946    1.49514570810948
H         2.63683788475199    2.08915920273913   -1.00755114623427
H         4.29747148580619    1.48439532775306   -1.36519116725560
H         2.27856887695448    2.64346908684858    1.30902820796426
H         3.27688374169186    4.63495941349787    2.08231280639807
H         3.15011086905312    3.57230244845308    4.21476729973396
H         4.63208351653285    4.47725397349749    4.15025893176892
H         5.95416379535750    2.63246508156105    3.99254600519887
H         4.79503910227413    1.58312396543401    3.55443861229795
H         6.06612793355788    4.35119205952479    1.64936374499363
H         7.39886280842076    1.88710151406673    0.41189506677385
H         6.14258090442514    2.07897276800100   -0.88827524618936
H         6.54066575319998   -0.25690595234789    1.08894701510289
H         5.67357093107843   -0.23831929583215   -0.51919054884041
H         3.08053056054644   -0.93023525457144    2.26368666895240
H         4.84009596303502   -1.29549418640529    2.49147301613472
H         3.46481209074752   -2.73239516738523    0.81130475966328
H         5.16430510131234   -2.17861137360060    0.47574273503114
