36
 energy: -47.842775977711 gnorm: 0.133257238528 xtb: 6.4.1 (79825abcba525fcdf90b791dcacef51065a7a4e7)
C         1.87177245303239    0.07304941759482    0.70167427670755
C         3.19025524563946    0.10123532920416   -0.10564061814141
C         3.45500472352393    1.51243554697302   -0.59672654605379
C         4.20131162835076    1.80571953049211    0.77659085223304
N         3.38327206793489    2.46739754150818    1.78530607288564
C         3.95924338739587    3.78428933877017    2.18726414350574
C         3.98876884447126    3.76137249829948    3.75180135552020
N         4.38689396544094    2.47075708730469    4.33533710656831
C         5.31262935056355    3.66615184736442    1.52483277319903
C         5.41365667549029    2.59020590535488    0.75698807514003
C         6.47487855115884    1.75758737831132    0.18730591576681
C         5.93672769637939    0.32396442878799   -0.04068077251415
C         4.57938919152038    0.33123424825160    0.81534576742866
C         4.53732591114929   -0.92772997205136    1.68229250940983
C         3.90624216022167   -1.88866231556522    0.66178557325950
O         3.44344250856921   -1.24094072486596   -0.54879561096647
H         1.35284448359399   -0.89020228999395    0.64931940170943
H         1.17151889783421    0.79339762808687    0.27622042684758
H         1.91794978657507    0.20420365936152    1.79278655781521
H         2.52820033543566    2.04264340824860   -0.84110308033154
H         4.15799533215251    1.59924243147370   -1.43755752185644
H         2.40990683780727    2.40827475483203    1.47498039930060
H         3.32173691482359    4.62792739395892    1.91023152962006
H         3.02084795866641    4.09361848353483    4.14408274375262
H         4.70071239148097    4.50017559217960    4.14501009174474
H         5.40330809743525    2.42514407051758    4.24818686837882
H         4.04131436445167    1.68934443232614    3.77367271179717
H         6.13068439189799    4.31001641657007    1.80370569685331
H         7.21158086352610    1.63295212137578    0.98984002729520
H         6.87625032489712    2.14492477669996   -0.75487757470918
H         6.65101448119842   -0.40094947248887    0.37627072170439
H         5.64805968527998   -0.12445896057220   -0.99658939197503
H         3.85495041227725   -0.86777650252379    2.53458452113681
H         5.49221541207000   -1.31465957613280    2.06398844262850
H         3.08216490927898   -2.44549939538492    1.12698775309956
H         4.62729584041342   -2.60135501471080    0.25609881639441
