36
 energy: -47.849048976534 gnorm: 0.131344302224 xtb: 6.4.1 (79825abcba525fcdf90b791dcacef51065a7a4e7)
C         1.84954815265621   -0.08203183468570    0.57307781394615
C         3.16188237384175    0.20125514107776   -0.19404410030259
C         3.41737121659607    1.68154094836059   -0.40903968328476
C         4.18045184054458    1.66671095347704    0.98612273364450
N         3.45190807396837    2.27933266373424    2.08994858486753
C         3.91753916536457    3.68576280344864    2.27066710489006
C         3.97912833848754    3.96910330564788    3.80855479019521
N         4.93119031843527    3.14677771949684    4.57148619901987
C         5.28309198243869    3.58421723313187    1.63083954360443
C         5.41511153028323    2.41507709364094    1.01999276767987
C         6.52969618373730    1.59129239645089    0.54769730000556
C         5.89443565278470    0.25436208600737    0.09391276536114
C         4.48099145203114    0.18019304046764    0.85013795079290
C         4.23806420038863   -1.26070136599421    1.30087793665796
C         3.88572341348636   -1.94249978362159   -0.03107512709317
O         3.40422243887936   -0.96900738431210   -0.99008656526761
H         1.87178332968118   -1.07538094813035    1.03421147762659
H         1.04654711431882   -0.03590292118731   -0.16403073833768
H         1.64819858387085    0.61169123007008    1.40257552262733
H         2.45690973046383    2.20778889602684   -0.42862179775134
H         4.00714518909274    2.04790399515063   -1.26149070091243
H         2.43042094916877    2.22309320520757    2.06467859313930
H         3.31819175347561    4.46712565506328    1.79617632945815
H         3.00236637109615    3.88433512410795    4.29834385971371
H         4.24578400998751    5.02216774946434    3.97365100202110
H         5.78396925433443    3.00688402829431    4.02745380996644
H         4.60227767622996    2.19306921389699    4.73808286700300
H         5.99672966556418    4.39103809239748    1.66699296893263
H         7.22596669187309    1.46127456859321    1.38473253250474
H         6.92971922530537    2.06722087188148   -0.35358673865366
H         6.52772092420565   -0.56992231164707    0.45316102420580
H         5.70495133630843    0.22137645703118   -0.98366863350797
H         3.50745440716824   -1.32249278286236    2.11206444972114
H         5.15653892440566   -1.79137202807349    1.58725720720060
H         3.14613420616548   -2.74640523107654    0.07995529229338
H         4.78643209923739   -2.39063060500313   -0.45573224412983
