36
 energy: -47.847428853572 gnorm: 0.136435611372 xtb: 6.4.1 (79825abcba525fcdf90b791dcacef51065a7a4e7)
C         1.79775931256830   -0.02859555073310    0.36249095423943
C         3.21373678910585    0.06242572440696   -0.25205889428116
C         3.47410371074460    1.52091586583198   -0.58032591565206
C         4.01961731218239    1.76405338410558    0.89354279199453
N         3.23737543627608    2.41814855258604    1.93506559606970
C         3.97388969202300    3.67434743596899    2.26221727572282
C         4.04534938016604    3.89125353398402    3.81044812220045
N         4.81730840337706    2.85066593712530    4.50755815764965
C         5.34148861527785    3.49722190125112    1.64356964852831
C         5.30127227783779    2.42874133680280    0.85987117216677
C         6.37616743202273    1.68672439337549    0.19805986679120
C         5.83770210561052    0.24106598724325    0.06773047073618
C         4.44729122873472    0.30291745951600    0.86656331059904
C         4.28487697206260   -0.97025058825490    1.69784024026401
C         3.94017103053501   -1.92430349075953    0.54282817228661
O         3.74994688954233   -1.19416530888690   -0.69408191407908
H         1.68490203815984   -0.94671017792618    0.94918497725703
H         1.07049423002939   -0.07764462299025   -0.44926469921463
H         1.62022821854743    0.78060812403935    1.08604599732088
H         2.60360585226147    2.11488718668196   -0.87905340316660
H         4.25814917654441    1.64987566872822   -1.34017456689340
H         2.28217711702191    2.61651598393329    1.62606097841490
H         3.45174459255488    4.56362926788078    1.89968593778295
H         3.06255615940528    3.93585247348998    4.29342981017963
H         4.60429361974744    4.81821276409395    3.99921948431697
H         5.80758215688239    2.94586543010958    4.27719248549807
H         4.52884338299681    1.95762494616624    4.10164732502384
H         6.24805058756541    4.04017104572464    1.85545926180372
H         7.28844359589225    1.66671220357293    0.80607045903879
H         6.58746186929231    2.15481166263503   -0.76893970229606
H         6.53734590903815   -0.44177540042909    0.57149673637410
H         5.60812612584440   -0.04170361127754   -0.96450506419719
H         3.50931795439419   -0.73806250856238    2.43284313044445
H         5.24239457373504   -1.15135729856107    2.20536421887941
H         3.01281943454960   -2.45766588898982    0.79006786783925
H         4.69317076992113   -2.67283648406915    0.28764046111568
