36
 energy: -47.848332126369 gnorm: 0.122879034388 xtb: 6.4.1 (79825abcba525fcdf90b791dcacef51065a7a4e7)
C         1.86900025086058    0.05895543573379    0.51809014019927
C         3.21792666264560    0.19582975581730   -0.22528826846031
C         3.46120891753365    1.68548395659642   -0.38177348604957
C         4.17468688329216    1.65478087449941    1.03914048470131
N         3.33958482189871    2.20577948446332    2.09910172632349
C         3.84844876227125    3.59633509961298    2.28599684213394
C         4.11196668969204    3.89400729697954    3.79964250370639
N         4.86157960163369    2.92070119411078    4.60924823965709
C         5.19839456422287    3.57310176579683    1.60663546068687
C         5.41770758603083    2.38986900768555    1.05047571729285
C         6.54172031783110    1.73108044598717    0.38221215380204
C         5.91637544892409    0.35719956012909    0.03833126668620
C         4.52968583020730    0.18915001005431    0.82830162390023
C         4.25954749479085   -1.19497244924834    1.41956040168655
C         3.86608608080316   -1.94297749700664    0.13551658289561
O         3.43444404672328   -1.04438146215798   -0.91588430521486
H         1.54610170821862   -0.98397035559079    0.42907660809616
H         1.05902120082054    0.57389340632060   -0.00060085193768
H         1.87197518587385    0.40451599488799    1.56233091204759
H         2.51066306715099    2.22646242811258   -0.44186875724970
H         4.15246344288037    2.00337377250595   -1.17539879454393
H         2.35142286621476    2.17094149093037    1.83536014520335
H         3.13816339691468    4.30090736917207    1.84558867333332
H         3.09740498525578    4.05924077585688    4.17978112469864
H         4.70767529701981    4.81652754923421    3.76230115623139
H         5.72598285286110    2.58321584146043    4.18300410698679
H         4.28974701601088    2.11704260295698    4.87876309563088
H         5.91108383186451    4.37848108338319    1.67723220474470
H         7.44780762752418    1.64735986367010    0.99403066446269
H         6.85530100758579    2.25309061297030   -0.52773938709203
H         6.52799914962409   -0.53931969227192    0.21644346690931
H         5.67344309995528    0.33554072556913   -1.02876233789788
H         3.48448558156305   -1.10654244115300    2.18577935259722
H         5.16746574742539   -1.65381960464663    1.83472771444984
H         3.08902505392808   -2.70966048003155    0.25365733214386
H         4.76455884105845   -2.38506494762030   -0.30007082184338
