36
 energy: -47.849252209201 gnorm: 0.137228206913 xtb: 6.4.1 (79825abcba525fcdf90b791dcacef51065a7a4e7)
C         1.80526660259704   -0.05659413638162    0.47936843959798
C         3.18106853521171    0.08902911212858   -0.21121940928580
C         3.46539425625468    1.55311589749096   -0.49113458285101
C         4.16677683863714    1.76910158981545    0.91968177458059
N         3.42010084460263    2.38054114412364    2.01198646138778
C         4.03872177820629    3.71113030426267    2.28467286483326
C         4.11011301558540    3.96359827199231    3.82750689131508
N         4.56214677765150    2.74096290599961    4.50980738305935
C         5.37240550932153    3.61845529757354    1.57960238699049
C         5.40152218724490    2.51448156434296    0.84622264375587
C         6.42236729100720    1.74267576791274    0.13476336755151
C         5.87324464299739    0.29516619851688    0.12848791587019
C         4.45274215273772    0.27419087433132    0.87476856373304
C         4.27138234130120   -1.06353321394439    1.59307193931611
C         3.87688633490410   -1.94919354645518    0.40014664838937
O         3.64753424486614   -1.14331777792049   -0.78188357255093
H         1.75197856222100    0.40961637551991    1.46916097715053
H         1.49614572929563   -1.09916403341994    0.56745851657380
H         1.02482010543242    0.52480223130652   -0.03321454876407
H         2.57375818629521    2.16015556331368   -0.68164598405554
H         4.21466217374695    1.72836813364216   -1.27638116619898
H         2.40667272147046    2.27618306314929    2.10847603730397
H         3.37435563749484    4.48426071267291    1.88999105787102
H         3.13926185351306    4.32161540064570    4.18863661689707
H         4.83316928388904    4.76462532296101    4.03451420937699
H         5.39317658989351    2.37108233961792    4.04574788586750
H         3.82856671495563    2.03054991036326    4.45812027490351
H         6.17308808166358    4.33355982484841    1.67488437333433
H         7.40979149941876    1.78877170335600    0.60930930586784
H         6.62495181862908    2.10241312835409   -0.87933121402872
H         6.55766412879624   -0.40440015377828    0.63021613509025
H         5.77438359625655   -0.02450728465121   -0.91372578098088
H         3.51173533496994   -0.89485773450048    2.36126293609184
H         5.16714971544248   -1.51379985202073    2.04260616522873
H         3.18487127065982   -2.79447657569975    0.51058065909212
H         4.77035907527014   -2.48150197369676    0.06730248735903
