36
 energy: -47.839855934391 gnorm: 0.148614156578 xtb: 6.4.1 (79825abcba525fcdf90b791dcacef51065a7a4e7)
C         1.85063390003286    0.09659679472107    0.63180374751663
C         3.20289224587978    0.17432946995339   -0.11405391846063
C         3.48719823991464    1.57243016623967   -0.63099519503797
C         4.16346707259608    1.91455680159789    0.76707490934866
N         3.33189787595212    2.48061130849891    1.82186771928723
C         4.01313969787517    3.74412235169203    2.23048326486812
C         4.02351781986453    3.53783842738838    3.78177719025726
N         4.54177607181640    2.26749036870006    4.31312445440789
C         5.41385329344950    3.56250144891473    1.69248641660954
C         5.46004609743212    2.54601703729031    0.84273508225665
C         6.49622835217724    1.83264203066306    0.09346498055597
C         5.89864772131824    0.40444162187709    0.09349214907746
C         4.51487348345629    0.43945021080795    0.90536981826616
C         4.32283452923693   -0.87691899392786    1.65945868997608
C         3.92104808800035   -1.85607934035184    0.54460230822576
O         3.50035062854725   -1.12975278181747   -0.63637057843937
H         1.26811233744631   -0.80146763924026    0.39936015258476
H         1.11453511203841    0.87922654304908    0.44228642014185
H         2.03694204835377    0.14019142558235    1.71496974191101
H         2.61124519695685    2.11040594040642   -1.00927417075031
H         4.19350637975019    1.67537851510277   -1.46721192368178
H         2.31510426880413    2.43632029973147    1.71506662877979
H         3.40584022961287    4.61535657049511    1.97159134408320
H         2.98273009518047    3.56765267629077    4.12385165817405
H         4.55454707775875    4.35614629102495    4.28743211192155
H         5.52315312280504    2.25662258293902    4.03107060519163
H         4.04927458678651    1.46752335775577    3.90940058987688
H         6.19743005650086    4.08909397740024    2.21234553485147
H         7.51409967685259    1.73452315683894    0.48923754319126
H         6.59638460373770    2.27085848737187   -0.90492089039255
H         6.54270896081303   -0.36976010559141    0.53547758681901
H         5.71408499060104    0.15706417452688   -0.95670546489507
H         3.51824422645751   -0.79435360984601    2.39529142099975
H         5.16575428800946   -1.35512819925135    2.17716758269202
H         3.11670392626178   -2.50338166346378    0.91825199744811
H         4.76670908204574   -2.48830444776082    0.26607055786020
