36
 energy: -47.840395675082 gnorm: 0.144556997016 xtb: 6.4.1 (79825abcba525fcdf90b791dcacef51065a7a4e7)
C         1.78129003585309    0.10334828020392    0.51694969399252
C         3.14399430436489    0.25683190989462   -0.19749310145902
C         3.31303179375892    1.76275346698183   -0.27730735639410
C         4.14028445868330    1.71796895880661    1.08013049224123
N         3.36345129869338    2.34897299525118    2.13978942793819
C         3.99887979320129    3.66493504070539    2.44309086654584
C         4.12092113843027    3.79084500787737    3.99821986242938
N         4.78601130688450    2.60551385282954    4.56155886999108
C         5.34571530216080    3.49404248792031    1.77882046447789
C         5.42704668046694    2.37356054545943    1.07500440615939
C         6.49001721109198    1.65394712807041    0.37056605426811
C         5.84169861062953    0.32184199692385   -0.07892023502020
C         4.49960750807603    0.26524092370352    0.79902617418508
C         4.36528843070206   -1.17998671634705    1.28030814694754
C         3.95929290880587   -1.84737270569832   -0.04364640367466
O         3.43762945708813   -0.89509623184840   -1.00295362176312
H         1.78709582038321   -0.25352269968540    1.55256087525321
H         1.17186831267924   -0.50831956461883   -0.14993498430362
H         1.22024430495562    1.04921748748737    0.53741721861403
H         2.37246996002535    2.28946521231227   -0.47153611884394
H         4.02634299383348    2.08175731581437   -1.05070998583945
H         2.37180228833796    2.33047635680337    1.88774279006064
H         3.42910649081241    4.48789247108091    2.00378894494435
H         3.09780117864128    3.78656686977157    4.39109409473430
H         4.64646370559928    4.73246479407215    4.20908455527213
H         5.73525255080355    2.51263165418788    4.19674747106742
H         4.24497541618662    1.78280638846111    4.28600400796968
H         6.24287412231388    4.08668894299015    1.85245429686172
H         7.20385715398774    1.29911171895461    1.12346020928175
H         7.00464629809505    2.18443477558303   -0.43725759176382
H         6.48226599603143   -0.55938334141944    0.07164420673131
H         5.55370397882764    0.35634595877122   -1.13440240161074
H         3.58059784757497   -1.28862552933717    2.03402606900028
H         5.30977549977568   -1.61820125188064    1.63121048930155
H         3.20666337013839   -2.63460834393464    0.09561143311806
H         4.80930903180504   -2.19068474165277   -0.63697639085942
