36
 energy: -47.836601809818 gnorm: 0.143623366388 xtb: 6.4.1 (79825abcba525fcdf90b791dcacef51065a7a4e7)
C         1.85551415993692    0.25118274693859    0.60969637469956
C         3.19376418180616    0.14160943815861   -0.15713425529072
C         3.39879750544977    1.56344418416737   -0.64610359141638
C         4.05032257255715    1.90441129970013    0.76394841498635
N         3.26499158983112    2.50894545116591    1.83273585238195
C         4.07781859727455    3.58191679850028    2.47737682575952
C         3.96618657786198    3.42644645194273    4.03061244218712
N         4.50433073268009    2.11535959213227    4.42578055223348
C         5.41599239693787    3.37756484593452    1.80509973084296
C         5.34141617229052    2.55141300457709    0.77099956750053
C         6.32584688795146    1.92510793242367   -0.11365931067792
C         5.87022464461771    0.45169009148307    0.02164494088974
C         4.49992276104883    0.45258805845219    0.85679403952540
C         4.37272478511556   -0.86682942204624    1.61923421471285
C         4.17705790987111   -1.78701033494800    0.40347370236378
O         3.37794788482121   -1.19450007636620   -0.64989628780745
H         1.02301625669018    0.60051156228031   -0.01062429988264
H         1.96634271133139    0.75608742217332    1.57045433747431
H         1.65928897511211   -0.79159346463752    0.89947773275401
H         2.51011907927086    2.14296199692270   -0.91853044777644
H         4.18811206384475    1.70121121556267   -1.39891879136975
H         2.36136451331497    2.82967439396635    1.47520481648408
H         3.79364506474800    4.61529110929743    2.26227298404484
H         2.93703794961428    3.55098631565996    4.38626092979720
H         4.64655182484448    4.14130084378529    4.51372015567464
H         5.42179574107986    2.31721821786514    4.82613595997242
H         4.51228650659178    1.37046856777806    3.72537212967671
H         6.26413015448886    3.98716446451931    2.07079950623137
H         7.39491193559799    2.04200025586572    0.10025974227266
H         6.25199650541075    2.27476945701878   -1.14860965551331
H         6.62294232798570   -0.17574015656833    0.52094614032043
H         5.65216771083404   -0.02066730940111   -0.94142498769936
H         3.49670083694326   -0.96226970634817    2.26661786758161
H         5.23581348461412   -1.21370858401496    2.20401878448788
H         3.62189190673235   -2.69112526581279    0.68622945159951
H         5.15096517594619   -1.98260122103447   -0.05004573109228
