36
 energy: -47.832797671680 gnorm: 0.132934296732 xtb: 6.4.1 (79825abcba525fcdf90b791dcacef51065a7a4e7)
C         1.99086318008975   -0.54911711899150    0.79492225859738
C         3.15948597695434   -0.10459621330289   -0.11484176634110
C         3.08787299521180    1.40321672864988   -0.27013323705513
C         4.08391895263346    1.61998386848590    0.95047913846938
N         3.36663812431603    2.08191685765411    2.13227396079776
C         3.83852935686576    3.46582264032863    2.43167450258648
C         4.57227415821480    3.53924820474649    3.81203708149619
N         3.87374901853977    3.83062120121815    5.07373043818840
C         4.95547874858191    3.69615973935499    1.43981051097232
C         5.13663025953111    2.58567573150547    0.73876771503302
C         6.19662329848843    2.04273430037477   -0.11306122454929
C         5.83756602865590    0.54886494525253   -0.30356381045230
C         4.60963811580352    0.21772649812387    0.67507936324815
C         4.88463340798453   -1.16063315354811    1.27745724376653
C         4.44172470258656   -2.03457792363416    0.09291324582077
O         3.59598475619828   -1.28202143456127   -0.81130810490410
H         1.16964736384746   -0.56397161233222    0.07017054433692
H         1.72408862038819    0.06823065134136    1.65398024888593
H         2.12252326643258   -1.58047636311256    1.15384219518857
H         2.13603124577964    1.92779477214645   -0.13367158297710
H         3.52815130463328    1.80708286154658   -1.19304986714879
H         2.35461364944458    1.99069959887843    2.01093450382318
H         3.14748790791242    4.31210952112978    2.39780782893860
H         5.39521953082264    4.26034495037594    3.74940071470982
H         5.13509337188665    2.59998832487244    3.90331763405805
H         3.06293557832851    4.43888258915660    4.94974233840321
H         4.49487354747666    4.36571040274922    5.68478015381063
H         5.62064516743464    4.54412719118460    1.44691976697096
H         7.11850831711854    2.14302698150138    0.47208373456835
H         6.30678610046528    2.75770618294290   -0.93496063122796
H         6.69378598476199   -0.09834721820303   -0.06365107606951
H         5.54570881460506    0.39762012980577   -1.34765116478722
H         4.19377324152079   -1.26639349506580    2.11838493343809
H         5.92960082167931   -1.39178764854888    1.52611555767216
H         3.95883544229783   -2.93117501622788    0.50341967756332
H         5.30319577860389   -2.33648323035467   -0.50637950877759
