36
 energy: -47.840083261297 gnorm: 0.141964037182 xtb: 6.4.1 (79825abcba525fcdf90b791dcacef51065a7a4e7)
C         1.84382114690166   -0.08843262113164    0.60643972683628
C         3.17945628008025    0.08868632456381   -0.15228046234932
C         3.45253147296266    1.54780448897299   -0.46715796514245
C         4.17926286775972    1.74934072541988    0.93292586979270
N         3.36904260721173    2.41529954943061    1.94512883949503
C         4.06613035858189    3.70110636229638    2.24225967903695
C         4.13618633306571    4.05667327785488    3.76470440007601
N         4.40140427790761    2.87702025678409    4.60302647900650
C         5.43764204619445    3.50576613901519    1.63792269048651
C         5.41550935788685    2.48296364255175    0.79481130277634
C         6.37460117371609    1.69465243607397    0.01847920405522
C         5.89609078010154    0.23053157580104    0.17416131344404
C         4.47149776111747    0.25510759876597    0.91249242833892
C         4.30876003441936   -1.08170847355240    1.63692053131883
C         4.05521607930817   -1.88971091084132    0.35397876148934
O         3.62784778222777   -1.11530950249758   -0.79358054918200
H         1.47538530539982   -1.09501068631459    0.83213144576850
H         0.99121487186892    0.38369692072053    0.11610943031612
H         2.00174357150939    0.25483048832152    1.63944056602273
H         2.44349364842379    1.97391356897231   -0.47612136128561
H         4.01890332803941    1.67373809865926   -1.40101641513496
H         2.38014934849027    2.58957009999388    1.74775282933047
H         3.55999787610122    4.51168719526405    1.71152872904020
H         3.19795630952012    4.51888313903410    4.09216338161123
H         4.94387368721568    4.80086642332314    3.79823689111280
H         5.15550577101038    2.32696883464461    4.18884322307566
H         3.53351726769735    2.35270790521761    4.47124414579466
H         6.13417189180181    4.32401362408851    1.72076554839232
H         7.41393336972667    1.73514233506650    0.36557342559984
H         6.42257903573033    1.94291027000205   -1.04684020725040
H         6.59818759631429   -0.46443860193832    0.65751504746517
H         5.76064557811886   -0.20579549547434   -0.82054834954001
H         3.47530370256307   -1.03866832369807    2.34341220805666
H         5.12328041171552   -1.55326996219940    2.20384784121231
H         3.30505481394615   -2.68326158186989    0.46851836901613
H         4.95860578596808   -2.34826770662759   -0.05350588412811
