36
 energy: -47.839918463118 gnorm: 0.146487633581 xtb: 6.4.1 (79825abcba525fcdf90b791dcacef51065a7a4e7)
C         1.81287387349069   -0.03678509518637    0.45314452069856
C         3.24490616235252    0.08875590571180   -0.11647958508970
C         3.31107291471037    1.55413969591924   -0.50508738551733
C         3.93509652562766    1.80953745411804    0.93517532765127
N         3.11891578652246    2.56532087619599    1.87706350557386
C         3.89257456076781    3.75636965096041    2.33572695005008
C         4.35401928658886    3.47441156502666    3.80431198199775
N         5.21916521491178    2.29370040033247    3.95313867065375
C         5.15360452738997    3.73190256697296    1.50288237054533
C         5.17038312355910    2.55629516971917    0.89041412725797
C         6.30601749493355    1.88627066169600    0.25371565918357
C         5.79992074636693    0.42325474122458    0.27130856840210
C         4.40754236261241    0.36803924569042    1.06719536710024
C         4.15105122318748   -0.98068318671845    1.74063206915408
C         4.05024882186812   -1.88328691726265    0.50037505592882
O         3.68114444756501   -1.15131120298485   -0.69428267447096
H         1.54839681455847   -1.09461275429723    0.55770860154967
H         1.18473183758582    0.44000905112005   -0.30076030409494
H         1.69172141347017    0.63841378795998    1.31296330126262
H         2.34920861444694    1.96496912959327   -0.83042242057497
H         4.09198461196373    1.73919695572765   -1.25652513322639
H         2.27500817491442    2.99072298732972    1.48452002719937
H         3.22556028784202    4.62235972099678    2.34204223913840
H         3.47994824725122    3.24287763873421    4.42361382642700
H         4.84023855882797    4.37727194655759    4.19895191812141
H         6.21360715808166    2.45862032389944    3.78985964787011
H         4.91695292500756    1.70084267857517    3.17681055606079
H         5.92306601224975    4.45865845116718    1.70610792366604
H         7.20752959194061    1.99413941966677    0.86850465837167
H         6.55666387112236    2.25328256990444   -0.74694309163348
H         6.51052566033758   -0.20461799059627    0.82841790074994
H         5.70260824013919    0.00795451514711   -0.73677378745247
H         3.29244653984923   -1.06393368174417    2.41256939830691
H         5.00882474404504   -1.34104051734901    2.32508689270916
H         3.33969328280260   -2.66858819029946    0.79019681628295
H         5.01941370346367   -2.34268950148239    0.29519285554795
