36
 energy: -47.847059323961 gnorm: 0.125047518951 xtb: 6.4.1 (79825abcba525fcdf90b791dcacef51065a7a4e7)
C         1.73620304545768    0.06034301784044    0.49711987971204
C         3.10551121524390    0.26262553307233   -0.19210111161326
C         3.38888521149220    1.75258314919011   -0.24179222911422
C         4.18318190658065    1.63021930580185    1.13047231650186
N         3.49097103203183    2.18813745398254    2.28549801056340
C         4.06993032924385    3.54687823135216    2.50031622348812
C         4.01379682097645    3.88376929434250    4.02757751293850
N         4.88773446948557    2.91506801074342    4.70769259495657
C         5.43006245774317    3.41337513649360    1.85483745933540
C         5.41891729444469    2.37148011302696    1.03521427040239
C         6.45508205486047    1.66850779385078    0.27615187702577
C         5.82094368626560    0.30731173344706   -0.10050823354707
C         4.48099572340425    0.18028387912906    0.77333700098787
C         4.19814119342242   -1.27130669993795    1.16222644345980
C         3.85813520954104   -1.87186026704254   -0.21139047033684
O         3.37031229438114   -0.82718064237322   -1.08883383906438
H         1.88736190921191    0.33228195455840    1.54739666846827
H         1.37215693727502   -0.96162831262535    0.38173966193893
H         1.01087105233564    0.72261066721820    0.00198873726896
H         2.56699066211139    2.47521569925497   -0.28759810702977
H         4.07326334495825    1.95953105260041   -1.07697310133790
H         2.50377822580122    2.34648298751663    2.06729066926952
H         3.50684259626089    4.29612242191422    1.93777549874988
H         3.00352935898569    3.64555366647813    4.37936706372842
H         4.21415464366641    4.95135186352665    4.19320037421841
H         5.83668171831755    3.11927960726255    4.39056463830117
H         4.72838499467769    1.96709400808271    4.35919449751760
H         6.21772182402959    4.14166769512708    1.95841541026595
H         7.27775884152385    1.56964132310807    0.99431172472787
H         6.87009137120948    2.31977515085589   -0.50002940090904
H         6.51113945610139   -0.48464795393622    0.22504356180293
H         5.69911808608719    0.05825982649366   -1.15942547171474
H         3.51808890735456   -1.31185844549217    2.01751403052764
H         5.13662275491787   -1.76313614854662    1.45304667246483
H         3.08260025493475   -2.64782821769439   -0.16663342760636
H         4.74904717641950   -2.26924169207222   -0.70209904962169
