36
 energy: -47.839272681648 gnorm: 0.149495624515 xtb: 6.4.1 (79825abcba525fcdf90b791dcacef51065a7a4e7)
C         1.80481932742379    0.04195513529983    0.44865286121445
C         3.18823091994606    0.11929812878475   -0.23774285836834
C         3.40612428374689    1.59437255228352   -0.51956134316921
C         4.05960114722141    1.77503123551041    0.91895197858385
N         3.29317289609872    2.43117261419778    1.97089263542698
C         3.95000633376320    3.71122746494288    2.36781412247532
C         4.15503102513329    3.76514521205448    3.91837252838732
N         4.93199709964157    2.66433716737122    4.50934722458080
C         5.25810098396887    3.62316631829771    1.61577759106598
C         5.31442617086385    2.48978033607090    0.93041978761010
C         6.42704618824613    1.67171223246389    0.44377362697970
C         5.88154691730889    0.26520192145193    0.09589677220650
C         4.46266555815288    0.30856726406153    0.84429322191501
C         4.21545661456664   -1.06659410724704    1.46572368472587
C         4.05095308487028   -1.93153180590826    0.20559930931580
O         3.46493586188496   -1.14462992459935   -0.86051645480650
H         1.60009915633903   -0.76496297709463    1.16058960961602
H         1.02703641998975   -0.13918887068197   -0.29465606653136
H         1.57567396293005    0.86062491307575    1.14660127402535
H         2.53423558767455    2.25488284242262   -0.57737904079709
H         4.06982648545216    1.86817864845230   -1.35218224784090
H         2.29071028231417    2.53156992510702    1.79137524846888
H         3.46979910120775    4.59555212345780    1.94089769199226
H         3.16259612358175    3.75956655591546    4.38332926398521
H         4.62339924835438    4.69521449020410    4.26895644296808
H         5.85118248673763    2.72404883006115    4.06854552274625
H         4.47468212647784    1.84163739889476    4.10994017011948
H         6.02580303376085    4.35066937506486    1.82294560943554
H         7.25403855176053    1.76183402859459    1.15811733952246
H         6.76836738270674    2.12638535461487   -0.49196750475207
H         6.52528984534167   -0.55014674335661    0.45694513862613
H         5.76618387610795    0.21781164874861   -0.99158636244426
H         3.37361056625497   -1.12001413591661    2.16147791137223
H         5.12332900137514   -1.46828752291683    1.93650004634909
H         3.35149111986693   -2.76234277887159    0.36712331485169
H         5.01529573829256   -2.32033575290417   -0.12802589270817
