36
 energy: -47.839691382482 gnorm: 0.145898208864 xtb: 6.4.1 (79825abcba525fcdf90b791dcacef51065a7a4e7)
C         1.76001250870463   -0.17608636998528    0.39004773662526
C         3.13023383037804    0.20301367218294   -0.21800266056390
C         3.46238092474451    1.67391751253006   -0.38789641090466
C         4.09693120470345    1.66777323993626    1.07028676253956
N         3.29056728666639    2.44263814452024    2.00509912992408
C         3.92392561696035    3.72695119986455    2.42571097118521
C         4.11520735463767    3.85341474512011    3.97380391724455
N         5.08938642568279    2.87617539601865    4.48437622338320
C         5.28591752681627    3.52302686428839    1.80296055533564
C         5.34522479322993    2.39271421006798    1.11279582233161
C         6.41746419217386    1.72320181117551    0.37385144098379
C         5.78610569123378    0.34575772398225    0.05621465111533
C         4.41242966513062    0.19148440402534    0.87133172594109
C         4.31639656761321   -1.24725989157074    1.38039854329149
C         3.89095524578681   -1.93065139275995    0.07079259299983
O         3.59573287753657   -0.94298297821146   -0.94733726576161
H         1.07438517162762    0.47335268763784   -0.16495242376828
H         1.61095971825020   -0.05122092214012    1.46357437363091
H         1.46777998418287   -1.22211376132917    0.21601719798101
H         2.57686373665035    2.30793426154108   -0.50489487828557
H         4.24266279063777    1.96456764060674   -1.10581744699932
H         2.27529510281824    2.42840566395380    1.87759559556516
H         3.38656854907785    4.54996761486271    1.94740351809255
H         3.13718543561157    3.74997356560210    4.45745249219883
H         4.40422218489307    4.88698291275756    4.20941796378094
H         5.99156989549248    3.04677631534372    4.03746045181267
H         4.76689781740671    1.93787071430807    4.23722585176697
H         6.02015213998804    4.30986835625623    1.74529246513468
H         7.33413706243874    1.50818210046122    0.93581456004342
H         6.61228887058293    2.31479558517768   -0.52664806535176
H         6.49554757897432   -0.44071692434366    0.35236343900875
H         5.58008275202554    0.25294981106211   -1.01481999936962
H         3.51581492935014   -1.27447506236969    2.12468391966741
H         5.27328551370392   -1.56439105797108    1.81744723473710
H         3.03591972064085   -2.58204343329186    0.29481615833565
H         4.70894996678940   -2.46111392501207   -0.42106628643434
