36
 energy: -47.845379728981 gnorm: 0.133851367042 xtb: 6.4.1 (79825abcba525fcdf90b791dcacef51065a7a4e7)
C         1.78560078106967   -0.01781455593553    0.58903016406082
C         3.15187060278018    0.13174283821388   -0.11941038256580
C         3.41559494097903    1.59670517803948   -0.41450110373997
C         4.15026947238760    1.70264042560312    0.99192030545298
N         3.36897015360356    2.42353245225562    1.98911584978885
C         4.05396031736412    3.72356898639577    2.25028767960270
C         3.98673355390358    3.99703702329979    3.78972569421017
N         4.67294688806618    3.02828998760790    4.65883222458049
C         5.39900822306824    3.57001973370557    1.57820578739359
C         5.38712259456329    2.44036886068950    0.88452052361212
C         6.37183704472070    1.65326691793589    0.13967747512820
C         5.88762596393053    0.18461286334133    0.21352799105087
C         4.45680102368360    0.21205227461615    0.93960591314473
C         4.31869108473765   -1.22861381403866    1.43333026861148
C         3.97277913036343   -1.96870166889702    0.13113713432564
O         3.55247620049367   -1.01901455664281   -0.87914669325784
H         1.11027354072762    0.72571484544340    0.15201956147172
H         1.93682684675680    0.08335407902979    1.66474534305183
H         1.40209069389246   -1.04038204332507    0.45812739961850
H         2.55609262512122    2.23727964828819   -0.63972708888633
H         4.06215431734296    1.63694157065144   -1.30279720201938
H         2.36056042663509    2.35781581313471    2.15044952508342
H         3.54038546053395    4.53137312705725    1.72248084354001
H         2.95327338637306    4.08909153071987    4.14275397761784
H         4.46686962501111    4.97347329745619    3.94252714954547
H         5.65567331200852    3.02367453979774    4.38134191457684
H         4.36945056385822    2.05375337470481    4.59828256277131
H         6.19443872634260    4.29491810893122    1.63615723759039
H         7.33201212644475    1.79855272273605    0.64887397953300
H         6.55099576098949    2.01853199103417   -0.87684741458232
H         6.60857901318120   -0.46535785531969    0.73055708244245
H         5.78818792762290   -0.14476758726683   -0.82560367682173
H         3.55293008445285   -1.44270222286058    2.18393579505571
H         5.22378817108311   -1.75272174041284    1.76997608014504
H         3.14097764093793   -2.65508292452023    0.33746446852468
H         4.87653554973371   -2.49856237480111   -0.17692617476079
