36
 energy: -47.837545488486 gnorm: 0.144169015969 xtb: 6.4.1 (79825abcba525fcdf90b791dcacef51065a7a4e7)
C         1.72515021352498    0.03781512908524    0.62845921788935
C         3.07428684307059    0.17812802994811   -0.11389602245948
C         3.41442095742230    1.61332281043753   -0.47064306095472
C         4.17465639095698    1.77274512593009    0.91702287190383
N         3.39390423129393    2.44101150300088    1.95063740571708
C         4.08155069363557    3.70747624288586    2.33887269793988
C         4.08730192217141    3.85724908810254    3.89666235793565
N         4.65737829490846    2.66338673858870    4.54041024133711
C         5.41554610506507    3.57535153803579    1.64071467773228
C         5.41763226359888    2.50560100137835    0.85771974994330
C         6.41862012108159    1.66612551959822    0.19644263679955
C         5.84412226832134    0.23404726101214    0.07009749751514
C         4.44562386226602    0.27561223739487    0.85602157473065
C         4.26052446890453   -1.10407504042116    1.48891816930837
C         4.12751222989237   -1.86726338778124    0.16115939840356
O         3.46447640663259   -1.01739624896373   -0.80700531823402
H         1.65676005749483   -0.91360060664560    1.16698684590352
H         0.96850988674621   -0.20132466248467   -0.12025644219027
H         1.42592723264135    0.87378644434222    1.27767209384452
H         2.57523087165361    2.30118511573129   -0.62034969719969
H         4.12680429647291    1.82296477929607   -1.28137617096491
H         2.38770948767428    2.61705877266575    1.88885636896148
H         3.47439328218023    4.51363270813096    1.91892228014387
H         3.08018488153478    3.99665415316471    4.30583764291866
H         4.71497971471367    4.71482606055788    4.17574846713474
H         5.45750266125552    2.28424777127265    4.03165878838490
H         3.94168155722614    1.94863501662105    4.39072375534929
H         6.29336599244943    4.05793753638077    2.03831839108551
H         7.40520425639238    1.76949962846665    0.66365862961228
H         6.62824347500105    2.18385962204524   -0.74528381867896
H         6.53937194116243   -0.49304433224331    0.51452974875547
H         5.72568986897877   -0.11197293595232   -0.96160877168353
H         3.39640251835502   -1.25916050394967    2.14074189189604
H         5.17958580637887   -1.47851536492125    1.96044860580398
H         3.54233475412262   -2.76844316611582    0.38704928738755
H         5.03384357453084   -2.19020757639802   -0.35527218529091
