36
 energy: -47.822618875324 gnorm: 0.148601651157 xtb: 6.4.1 (79825abcba525fcdf90b791dcacef51065a7a4e7)
C         2.15418383602562   -0.13939801178857    1.08045504561987
C         3.22666879602871    0.07279766904497   -0.01302456179145
C         3.28115846963194    1.57957983554519   -0.18443662186259
C         4.30316146164671    1.58950638058202    1.03392354191978
N         3.69094801834285    1.92016066874611    2.31469492769788
C         3.96664039524543    3.38655414658301    2.34935207001945
C         4.27584415810322    3.79554200146205    3.82796479184219
N         3.14945061594738    3.41240150950631    4.69349738648039
C         5.11679108498976    3.65325129723722    1.40571476764061
C         5.36384938763052    2.52765930558389    0.75038544236761
C         6.06341951618919    1.93441491582952   -0.39094972708097
C         5.97220213381914    0.39101779572218   -0.31055226706510
C         4.74660252217757    0.17120345488134    0.70176653237212
C         4.93195285225073   -1.26011108259861    1.20707915675070
C         4.16169110379305   -2.00961605647421    0.10797442338227
O         3.39466761838188   -1.14095248180336   -0.76169916335600
H         1.19338487537296   -0.02162987214848    0.56773958742174
H         2.35106835889966    0.59044561485063    1.86711401006241
H         2.28587065073321   -1.16103070037146    1.46618165693462
H         2.37761303026416    2.18806989341827   -0.06975393325153
H         3.76659389126974    1.91672067255541   -1.11148379498550
H         4.21663977049175    1.39851485525753    3.02093229078032
H         3.10975613509248    3.99926064878320    2.05741571775499
H         4.50601951313442    4.85167396001814    4.00892754094286
H         5.20357563648209    3.36027327249459    4.22440163780202
H         2.28619359266813    3.75922297093172    4.27245631389863
H         3.23533698297322    3.93527523574627    5.56798265667807
H         5.59715887185628    4.61408897456260    1.31863153740552
H         7.12937309809056    2.18912228534472   -0.35641900821987
H         5.78832457751080    2.39091642744479   -1.34738500312657
H         6.90758364615210   -0.03390722400102    0.08194547786089
H         5.81203045147625   -0.10306015100329   -1.27409056780436
H         4.60890436503246   -1.40158230396282    2.24209509037510
H         5.93610763528688   -1.69278355978114    1.09896828204834
H         3.54212613274948   -2.86189987715531    0.41673882687940
H         4.98486913555191   -2.27318143034343   -0.55936526230814
