36
 energy: -47.841362520500 gnorm: 0.135701311785 xtb: 6.4.1 (79825abcba525fcdf90b791dcacef51065a7a4e7)
C         1.71785132101873   -0.00136075293414    0.44162249460357
C         3.13889037469497    0.13981733881731   -0.15139133803153
C         3.36204241635823    1.59259219780507   -0.52874010647439
C         4.10328668965904    1.83335070752317    0.85747142340241
N         3.29476541485518    2.41096269887462    1.92385344083012
C         4.00665887425174    3.64489290519183    2.36898396647325
C         4.22379570194579    3.66800135134552    3.91865851522182
N         4.92663349198637    2.48293096053234    4.43473305524318
C         5.33732105507404    3.62213594724626    1.65257235069253
C         5.36604470074794    2.53294467271939    0.89739756974040
C         6.24099417413878    1.85749143193591   -0.06291984824934
C         5.85222631817935    0.37032847279687    0.12164693819927
C         4.44357264391828    0.34953988315229    0.89006397129192
C         4.30646648460893   -0.96804372040952    1.65395675361481
C         4.07280192690386   -1.86892953603111    0.43047905306319
O         3.60317667571701   -1.10113057068550   -0.70493736675070
H         1.69499940949345   -0.73692571221672    1.25298129359433
H         1.00311565490087   -0.25135451743150   -0.34382235229924
H         1.32327218348652    0.85364700033036    1.01006671731427
H         2.42323228104433    2.07933530600344   -0.81426297848980
H         4.14195695646765    1.66872804739030   -1.29988509531354
H         2.30839758521821    2.51431264163321    1.67159427930096
H         3.38337289586292    4.46822616058296    2.01048199408202
H         3.26661187287304    3.75765079056895    4.44487616664298
H         4.81476722082436    4.56743303760876    4.14020317697098
H         5.55940587140331    2.11920390252689    3.72053760381852
H         4.30171221118571    1.72311338430249    4.71338792079844
H         6.18708005959523    4.18653604558836    2.00029046225578
H         7.29237818914237    2.16878123213480   -0.05897447334472
H         6.01779005135278    2.14591005821367   -1.09531216206946
H         6.58643861639651   -0.12765664212497    0.77164496907163
H         5.80272115001588   -0.24864185531106   -0.77979579675907
H         3.58124600605244   -0.91151252951741    2.47034629280389
H         5.25448987311495   -1.19735743051067    2.15980961460046
H         3.39552702270262   -2.68943100081571    0.70188274416226
H         5.01057056594725   -2.31267240857917    0.08972507094776
