36
 energy: -47.839434540849 gnorm: 0.136921896925 xtb: 6.4.1 (79825abcba525fcdf90b791dcacef51065a7a4e7)
C         1.94814356332399   -0.37476900179273    0.70145833818614
C         3.17367506312817    0.01602504286672   -0.15662161949877
C         3.17585921888803    1.51226583769023   -0.40960865215180
C         4.09258231411355    1.72861454724369    0.87171962253977
N         3.44976711170014    2.16943156995356    2.10337779533591
C         4.19964538129589    3.33541070179857    2.65627244036449
C         4.55847195204462    3.25255338873432    4.17730885293518
N         3.44136382358445    3.87290520059044    4.90665018250364
C         5.41891609547960    3.39781169615801    1.76525596394659
C         5.27239771718623    2.55310404159415    0.75409179472443
C         6.13637231112842    2.05196409755443   -0.31660417917348
C         5.85998706978574    0.52941757281078   -0.26841401283844
C         4.59642721083549    0.30268117468787    0.69450300266322
C         4.68371574590006   -1.08705543709767    1.32646005405542
C         4.31346647865301   -1.94827804096831    0.10814023692774
O         3.66420819542618   -1.11894156535361   -0.88679607741658
H         2.02915635685521   -1.42183417007856    1.01286254776329
H         1.06589413535825   -0.49802700162001    0.07160837509928
H         1.89520508498498    0.33297789467594    1.54178662914438
H         2.19448812969209    1.99819789860418   -0.38537129133128
H         3.76729510179860    1.65949078633730   -1.32462579297321
H         2.45940413862535    2.34438590490922    1.91414367735129
H         3.64591480495204    4.25211740742343    2.43737066394076
H         5.48852789497615    3.76831916821114    4.44211920993225
H         4.67307611746109    2.18746271367270    4.42175612808824
H         2.64633058964397    3.82930254805796    4.26727989586341
H         3.68637046435018    4.86559861569156    4.91207400231664
H         6.19715036150682    4.06941634131829    2.08905274227347
H         7.21478618259229    2.21783264939522   -0.20780897697554
H         5.93888069638639    2.45315090737242   -1.31604676753586
H         6.64931674904651    0.04430670670216    0.32419075974975
H         5.77938609002651   -0.05424241336158   -1.19092067403879
H         4.00132094690882   -1.17377014284588    2.17643081909828
H         5.70365915685792   -1.34962674361723    1.63949678693626
H         3.71347935331299   -2.80856651321643    0.43295265905748
H         5.23699551329264   -2.37632128207381   -0.28721294932413
