36
 energy: -47.838921923901 gnorm: 0.140741747215 xtb: 6.4.1 (79825abcba525fcdf90b791dcacef51065a7a4e7)
C         1.72558005963580   -0.22899051001691    0.47656574390069
C         3.13711766809053    0.09411059638888   -0.06575880404188
C         3.38007873456668    1.53559744147641   -0.47298027392550
C         4.15858843864945    1.76980380040792    0.89378970135475
N         3.51183533133361    2.49651922450696    1.97919652852019
C         4.15825669532759    3.82271758339130    2.20470609988817
C         4.04383065114444    4.07001756076388    3.74578462142286
N         4.32984005162904    2.90044101536687    4.59135841949867
C         5.52825928748161    3.53427221556110    1.63521730565420
C         5.42530176117074    2.46261555622665    0.86165193898863
C         6.34507007325660    1.69737782433202    0.01760178586594
C         5.84825330274968    0.24002113631210    0.17929155398258
C         4.45147900658813    0.27742739987412    0.96848380118269
C         4.46521218643181   -1.10497757599910    1.62203160804571
C         4.03565339352826   -1.92759101045646    0.39652010296551
O         3.64083959196271   -1.08427878836280   -0.71351599344706
H         1.51028023741591   -1.29183478788822    0.32200459106989
H         0.99963262603851    0.29878175247812   -0.14369575535761
H         1.52986471542006   -0.01241122481451    1.53706030284455
H         2.50851616916770    2.19903302091852   -0.47918920206415
H         4.06257875813595    1.75841682281267   -1.30561056025740
H         2.51032686902930    2.54937181059427    1.77566571923438
H         3.56932569792138    4.60151806277489    1.71326249396940
H         2.99968408983388    4.36412431729461    3.90199631174030
H         4.63063456603428    4.93688534974704    4.07971296019782
H         5.34150365295285    2.76150425121961    4.58876379277795
H         4.07588173724877    2.05013003855826    4.08344670794956
H         6.39747859764083    4.15813295246527    1.76483709456593
H         7.39556251562775    1.68804831439995    0.33177344896601
H         6.21679013093863    1.97076342903560   -1.03484481005050
H         6.49140539358769   -0.51873516055486    0.64854477442719
H         5.58511505296943   -0.16214019039491   -0.80417097759450
H         3.64673673850579   -1.25179093929543    2.33208525571090
H         5.41195056395979   -1.36794116669233    2.11371936653908
H         3.22002468563129   -2.60740741357380    0.67613302022784
H         4.83120529875915   -2.58360431015825    0.03711120914338
