36
 energy: -47.847457269046 gnorm: 0.128246071774 xtb: 6.4.1 (79825abcba525fcdf90b791dcacef51065a7a4e7)
C         1.77235617025778    0.02022215441706    0.65314049986829
C         3.11607889696219    0.16778885195945   -0.09758046280259
C         3.53506029919512    1.59127518405907   -0.41520440929345
C         4.23211989807010    1.71600368659024    1.00871301972371
N         3.41669767224243    2.37334463798268    2.02237093232465
C         3.95270743874894    3.74350361009504    2.27312011883399
C         4.04541849913483    3.91934822354816    3.82542709048048
N         4.69130346836490    2.75556060723872    4.45243323642087
C         5.32760834276254    3.62356689003212    1.65693182693587
C         5.48123470479769    2.43653441550390    1.08701561569663
C         6.50142442410783    1.66185416619965    0.37774368623239
C         5.86892837195327    0.29068579159004    0.03612246750744
C         4.49574681189932    0.22333811259048    0.86379317064720
C         4.33498983920144   -1.19762874394017    1.40542706226588
C         3.87483084654045   -1.92804647246397    0.13348534793676
O         3.38917049485230   -1.00816204333465   -0.87506819055036
H         1.36861609521163   -0.98869882554799    0.51546867974835
H         1.03770058133776    0.67207479606092    0.17812801230358
H         1.81880162321850    0.15814832014687    1.74340605639930
H         2.70630174686944    2.30313089811472   -0.49411782783262
H         4.19665299276750    1.71207615345489   -1.28493436251017
H         2.50093119750862    2.43335048250343    1.56959235086570
H         3.29713293890298    4.46760866416602    1.78242604766258
H         2.98972878518488    3.96026303030212    4.11695431362194
H         4.42794756658821    4.88629623483385    4.18037749425862
H         5.68483495999114    2.86780380528512    4.24490001576405
H         4.29160076661993    1.91424722993574    4.03061877469651
H         6.08848000764077    4.37586808682940    1.78601684889751
H         7.37073026931591    1.53422622450235    1.03374955915059
H         6.79321667593239    2.10758398741175   -0.57882386928260
H         6.48563343549239   -0.57146964939286    0.32923879627392
H         5.67134070282400    0.20819858596377   -1.03734341978792
H         3.66948134401403   -1.15720038446921    2.27208524198392
H         5.22363622225543   -1.71648661918042    1.79054311288143
H         3.11158842495381   -2.71137946425591    0.23061592938923
H         4.76716503786181   -2.35881205225364   -0.32543920382741
