36
 energy: -47.844597515258 gnorm: 0.136875259354 xtb: 6.4.1 (79825abcba525fcdf90b791dcacef51065a7a4e7)
C         1.77951763966431    0.13118300159037    0.57760814128642
C         3.15723327633292    0.13089051696230   -0.12442329226923
C         3.54145684703156    1.53761846254841   -0.54422371520421
C         4.18880165314281    1.81625071892745    0.88136342395495
N         3.31765470415495    2.47274336433609    1.84812760621153
C         4.00416503114025    3.72473231895100    2.28257476248375
C         4.09766894442556    3.75803886847066    3.84440739704973
N         4.44094701925062    2.49512213679327    4.51664780728881
C         5.34312488512650    3.58368376913140    1.59575822393086
C         5.45722444062151    2.50502029683828    0.83357861348826
C         6.40132539220350    1.70619003227984    0.04966118912944
C         5.85377858430031    0.25954494420330    0.11500154681102
C         4.46513768019573    0.31928223625775    0.91706750677373
C         4.36466685403179   -1.01032114382748    1.66567756425506
C         4.10456449452234   -1.89517453409502    0.43585105813876
O         3.47979671734904   -1.16619033557151   -0.64926681920401
H         1.86682592979672    0.87570781995712    1.37632033431397
H         1.41756937466078   -0.84465289192981    0.90472480507807
H         1.09204673736855    0.55657760538614   -0.16823565371394
H         2.74415853737356    2.20715219324746   -0.88458609826516
H         4.34087944140598    1.59943452155129   -1.29644056566851
H         2.40124395037667    2.66089474425510    1.43336537470250
H         3.40505929459532    4.55302006179256    1.89540763997390
H         3.08291577548062    4.05475428674936    4.13316137467411
H         4.78752050537551    4.54885009954290    4.17002852946412
H         5.39350781905141    2.20934033426858    4.28485031789811
H         3.79136164332466    1.76536165442638    4.21500835309208
H         6.15552079307982    4.27696091047821    1.74041395431234
H         7.39275329611480    1.56915048472486    0.49756300246467
H         6.34444785486766    2.17171838088924   -0.93972624939127
H         6.68928786627712   -0.28581710310874    0.57766636801055
H         5.62336442907819   -0.18583820909044   -0.85799235796108
H         3.44441226763641   -1.06003309978667    2.25414383102387
H         5.25027166871605   -1.20879840412494    2.28497641017884
H         3.43789667048666   -2.72923778896936    0.69173461212724
H         5.04039515210096   -2.33799946522199    0.08863631724123
