36
 energy: -47.845480630898 gnorm: 0.117829563369 xtb: 6.4.1 (79825abcba525fcdf90b791dcacef51065a7a4e7)
C         1.70701325807851    0.02860868005549    0.35064344646924
C         3.17326062897376    0.14575112468524   -0.12616352268639
C         3.50318087901537    1.57477855802142   -0.51574905359320
C         4.14020440276971    1.79908931276889    0.92399940419048
N         3.30558326930134    2.33173108080712    1.99367828213361
C         3.93813646796191    3.63469155035710    2.35379989251385
C         4.18693882162932    3.71195705752448    3.89694633007357
N         4.82755813946267    2.49419191733913    4.41786920041242
C         5.25815543525241    3.68767199605042    1.61951918578269
C         5.36559965357617    2.56328004177052    0.92550922911164
C         6.45228149675184    1.80896726295936    0.29772126804446
C         5.86129826630244    0.39576917635995    0.07306851156553
C         4.49140801247390    0.31758511333364    0.90522825813059
C         4.31937078863567   -1.02679832633102    1.61331929755009
C         3.89516188058690   -1.87999416798572    0.40700439022230
O         3.59224607616491   -1.07370873004730   -0.75806185530167
H         1.49355036476801   -0.98053466123716    0.71934985631088
H         1.06591030669797    0.04699227971182   -0.53191907240110
H         1.39979243399662    0.65534945820275    1.20074410806988
H         2.66728317859622    2.26867493049864   -0.65571128747605
H         4.17411081731613    1.75836478907743   -1.36714614376663
H         2.35514843303343    2.45210522143849    1.63392696289042
H         3.34728311994556    4.42940520428164    1.89097250945553
H         3.24045731165029    3.83834693101427    4.43485082303353
H         4.90381017170988    4.49981922215096    4.16653004813908
H         5.74039078280362    2.37028497225251    3.97723666908388
H         4.31840034795632    1.67887423844491    4.06928160786680
H         5.96501083661193    4.45581520309505    1.88758080880938
H         7.32467436782120    1.80445947957759    0.96197688013620
H         6.64267492253956    2.31415672956117   -0.65484009032777
H         6.55991674987584   -0.41341810803912    0.33133660255514
H         5.60093829809705    0.17963533257025   -0.96792756153628
H         3.53600162645232   -1.05031823011599    2.37582299773790
H         5.28966057699888   -1.40771192409790    1.96068471161044
H         2.97820431280354   -2.46304147395859    0.56457517475638
H         4.73814247253246   -2.49736498171236    0.08972215310581
