36
 energy: -47.842689599107 gnorm: 0.148997627464 xtb: 6.4.1 (79825abcba525fcdf90b791dcacef51065a7a4e7)
C         1.73425418605728    0.15987023649597    0.42786777400775
C         3.14177772073260    0.20015957251838   -0.21103983258264
C         3.50163242303047    1.64020490553320   -0.52650418719236
C         4.10600836235419    1.80016748474570    0.93573104128679
N         3.34732364813871    2.33341877035042    2.06025471349267
C         3.95345570524927    3.67377225514709    2.31239297291410
C         4.08277240383317    3.83755582854523    3.86340094688715
N         4.86574717828911    2.73071911111197    4.43486284494144
C         5.34808835588570    3.52519039594081    1.74905601316888
C         5.39868654175031    2.44204111327352    0.98637710772633
C         6.41293180495030    1.65860243602513    0.27820083693540
C         5.82543696905187    0.22660901816245    0.24497901427023
C         4.37547168995991    0.30153860529866    0.92849078357477
C         4.30828957971890   -1.12381710694836    1.47822212246085
C         3.98739937948516   -1.86714259486296    0.17147471911392
O         3.43833827886137   -1.03529447285973   -0.88009277301188
H         1.59840952755289   -0.85825715667237    0.80845148521378
H         0.96438442359476    0.34699653605467   -0.32216679963610
H         1.67209519325211    0.80177182162568    1.31891120970410
H         2.59901507222922    2.22241936254458   -0.74124794813910
H         4.35052746385180    1.73447902256610   -1.21875960153595
H         2.32419848484083    2.35178867432754    2.07097175399589
H         3.42533031544488    4.41338943854427    1.70499135802369
H         3.09886626197761    3.78861132145455    4.34368842162344
H         4.47271417179120    4.85041261040819    4.03478731310966
H         5.71876270008384    2.68773740177107    3.87513926073064
H         4.40052187878734    1.82216604759076    4.37490751937695
H         6.10225147323389    4.27974689445886    1.90211880172306
H         7.40607481448847    1.60029875402784    0.73927881768286
H         6.64879263470358    2.04753734885782   -0.71776030342699
H         6.43964755729831   -0.44096478499710    0.86678677343402
H         5.82984126129048   -0.16593489055423   -0.77681544544557
H         3.57477816953953   -1.16467855936731    2.28811332623815
H         5.20398390608214   -1.54510602732001    1.95515773641836
H         3.29142252037057   -2.70435019133888    0.31389511785442
H         4.90319041362650   -2.25538668747399   -0.27910750926546
