36
 energy: -47.845707790749 gnorm: 0.134922180582 xtb: 6.4.1 (79825abcba525fcdf90b791dcacef51065a7a4e7)
C         1.69784521479254   -0.08992206703445    0.26556443402378
C         3.16289105421286    0.14577707563456   -0.16921742095031
C         3.26637901826352    1.63240378631065   -0.45553018134043
C         4.03255332101419    1.89334535916014    0.91336593501724
N         3.24492580046906    2.67175847798367    1.86111526644332
C         4.06359033477003    3.76281552822965    2.46683808836190
C         4.40875384652599    3.46435241025595    3.96382022672303
N         4.84045975243157    2.08425279981087    4.23522545036488
C         5.34872897507338    3.64115820003027    1.68068067107640
C         5.28370305895950    2.61163456683064    0.84803168086800
C         6.20955087897593    1.85292868029875    0.00473198130076
C         5.80836264388597    0.40561019168910    0.38046618120305
C         4.33304947595706    0.40386435249526    1.01185360438387
C         4.28836623837929   -0.96630242039835    1.68935141915293
C         4.13245614509972   -1.82128161081209    0.42136297365881
O         3.71161597113290   -1.05498272065925   -0.73402143737899
H         1.15021847935719    0.08266834902962   -0.66727994054749
H         1.45332484184740    0.72229569568800    0.95169828171370
H         1.51087735416694   -1.14105852718328    0.53016781860350
H         2.31851706986691    2.17794757738582   -0.51673742474900
H         3.85980732920987    1.88607220903661   -1.34559935291801
H         2.39146881869349    3.01489916156760    1.41267012684672
H         3.57545916866855    4.72675625165079    2.30120907272538
H         3.59035282189749    3.59890477664399    4.68024073467382
H         5.21737737593809    4.13524002831730    4.28529265503330
H         5.49377769902613    1.82554898170477    3.49426567173478
H         4.04445020851009    1.44759555285659    4.15439077203362
H         6.21120655647439    4.25997845100383    1.86706638926753
H         7.25302639881284    2.00756614509579    0.30401668296390
H         6.09943027851248    2.14102931843930   -1.04584440715701
H         6.48387281124423    0.10575628034488    1.19491565966990
H         5.83081464196428   -0.25968143937675   -0.48847396599910
H         3.45623126298627   -1.05213082253043    2.39349435617045
H         5.26937948146150   -1.22975109836781    2.10819275494327
H         3.49280096336072   -2.70400091013899    0.55263293953714
H         5.09675743874427   -2.16138422724358    0.03810814836341
