36
 energy: -47.843052093478 gnorm: 0.148239530964 xtb: 6.4.1 (79825abcba525fcdf90b791dcacef51065a7a4e7)
C         1.74938028338899   -0.09416695585301    0.46526462625094
C         3.15107624562711    0.12197352987369   -0.15075516110180
C         3.40621890669414    1.57900585295054   -0.48943312938318
C         4.15032992394282    1.78389413801741    0.90100196959713
N         3.38325556396802    2.39762243993805    1.97777836485375
C         4.00850276508189    3.72241542594053    2.26327219361579
C         4.03944529125057    3.88327704244816    3.81965894079317
N         4.84686024874672    2.83547532785484    4.46378499328300
C         5.42727517538667    3.53621267561479    1.77661141636145
C         5.41922906667073    2.46735463648467    0.99243706104479
C         6.44789591810654    1.71549013280512    0.27096112822590
C         5.73872371160433    0.37228517965770   -0.02859564124502
C         4.44278618999344    0.28962312534118    0.91422726336269
C         4.21107747386659   -1.06489935287855    1.58500056048675
C         4.01697487351559   -1.91893641271241    0.32165699755553
O         3.51175792609935   -1.11938950817323   -0.77593771976047
H         1.50411746013161   -1.15995002619960    0.52718163633696
H         1.04853171677459    0.38007242426609   -0.22333965818000
H         1.61205925135322    0.23176501678828    1.50678806527290
H         2.49826641863607    2.15242752828466   -0.70534168827307
H         4.13601448186546    1.72021090168275   -1.29948714904167
H         2.37794825779759    2.30175591605688    1.81223613722335
H         3.48637398618183    4.49022227267328    1.68643520212457
H         3.02314605178996    3.73904051381174    4.20368315640231
H         4.51721756167497    4.85203469654344    4.02102675301170
H         5.83360654905967    3.06465743868713    4.33501893589854
H         4.65234674853632    2.01409507327451    3.88672618867229
H         6.22310358457671    4.19750192901026    2.07810670036182
H         7.27557391848591    1.43837522135152    0.93464908570002
H         6.89888345062248    2.21243356666360   -0.59419594695416
H         6.31965147144990   -0.51629775371148    0.25862836497227
H         5.54227995883186    0.41140803205621   -1.10472448641516
H         3.36554151359541   -1.13597691127134    2.27467391775124
H         5.08646664879904   -1.40184939359573    2.15717074641304
H         3.30197179123539   -2.70316936909170    0.60331845766268
H         4.87013383637435   -2.48746785848194   -0.05427227724950
