36
 energy: -47.841718703369 gnorm: 0.125015264251 xtb: 6.4.1 (79825abcba525fcdf90b791dcacef51065a7a4e7)
C         1.67609231923430   -0.12156045416817    0.41284618487455
C         3.11869758716584    0.10516497366404   -0.09551812798123
C         3.44203136346104    1.56082515427898   -0.37703620415301
C         4.05412294990875    1.68452118061494    1.08550723394202
N         3.30965141734760    2.48114493869933    2.05280533466793
C         3.96880360383619    3.79767060739216    2.29733711819564
C         4.32415939157104    4.07189412860232    3.79656936133790
N         4.76989161616647    2.82970627373176    4.44695219544626
C         5.29748963858156    3.56344561422485    1.61604615863201
C         5.32196249442998    2.37389601271015    1.03138863271244
C         6.42188623230200    1.64080963443591    0.40151935227781
C         5.72976007954253    0.29054312983248    0.09394700276226
C         4.40082246167700    0.20495685488815    0.98938090598278
C         4.34469098214205   -1.22468576862703    1.52912908274684
C         4.15701593764577   -1.91368792795779    0.16782596903934
O         3.62301578498182   -1.01651782009594   -0.83674518833089
H         1.28167690027482   -1.11365269421839    0.16775317017716
H         1.03614774081417    0.64822172096098   -0.02094397452748
H         1.54157073291964    0.00281655032316    1.49741711038840
H         2.53789263065435    2.13362093661208   -0.60994127189564
H         4.11320500218293    1.67563677810033   -1.24021184898146
H         2.36268057239140    2.60121812417572    1.68393403805043
H         3.43472477889776    4.63981870522979    1.84963955463381
H         3.47217335504192    4.44700516142056    4.37497615867913
H         4.99242672265570    4.94173941187280    3.86055909674626
H         5.47284941574857    2.40059292011878    3.84322588365071
H         3.95788103656073    2.22011525698495    4.32638893946004
H         6.06388829753256    4.32112965976578    1.60636700027553
H         7.30897317366382    1.53493810311782    1.03728126979128
H         6.65226951182034    2.15112295616706   -0.53940738278535
H         6.46488055870734   -0.51102550467124    0.25716440456827
H         5.45458032447633    0.18314591720990   -0.96005298135061
H         3.48971939863349   -1.43789913666546    2.17658260244857
H         5.26162526770119   -1.59419353411440    2.00862442308994
H         3.46958988809753   -2.76725982994612    0.23449191353284
H         5.14073338087447   -2.27936793188544   -0.13385127774172
