36
 energy: -47.839108252498 gnorm: 0.119476216534 xtb: 6.4.1 (79825abcba525fcdf90b791dcacef51065a7a4e7)
C         1.65903167173664    0.07820330031276    0.37134002948732
C         3.08769930597894    0.22659748762821   -0.20123008357269
C         3.47060749840680    1.65552793473485   -0.53928740046268
C         4.16160349317120    1.72674608913601    0.89125187694468
N         3.45789611219329    2.17775176912601    2.08536352378848
C         3.99506869031800    3.53448073014338    2.39881111089701
C         4.09514696610442    3.90830253980960    3.91519339093843
N         4.82522027858882    2.94372934647177    4.75262831002456
C         5.31590843831825    3.52575375202173    1.66414687687356
C         5.41590086230369    2.44234520514513    0.90673082148113
C         6.43178515833949    1.73390123516619    0.12566139252734
C         5.91173189793806    0.27628510992495    0.16759972399914
C         4.43837161003444    0.23209424887165    0.80199601131778
C         4.28927051975638   -1.13766930134968    1.46522555971840
C         3.95186854594989   -1.90070150723665    0.17408893267069
O         3.44976335801657   -1.00377103002121   -0.84700834412984
H         1.66582314855633   -0.93095663786694    0.79728744560296
H         0.99231900433453    0.08375381922081   -0.49221712417836
H         1.29866776018365    0.75161520464600    1.16286641847747
H         2.64504264358267    2.36093627014206   -0.68298273852990
H         4.10452804248520    1.66431591544465   -1.43750532999390
H         2.44429136164517    2.12548057663545    1.95455634740133
H         3.43214586879108    4.37225893549934    1.97912991885082
H         3.09608468716521    3.99467700821261    4.35741159634639
H         4.62910033605714    4.86638658548704    3.98058067477394
H         5.81302964089936    2.98776417981724    4.49754597431587
H         4.49585616774710    1.97668818284816    4.70963338781612
H         5.95845099798279    4.37599355514611    1.82469927570103
H         7.37568521149156    1.70824096783551    0.68308357011127
H         6.53295359519856    1.97342122911092   -0.93793364371527
H         6.59391751108455   -0.30301541955667    0.80680859743430
H         5.96826502238116   -0.19267806869584   -0.81984726529954
H         3.38777242134250   -1.21096837847193    2.07968532277003
H         5.11623374301334   -1.50242195653781    2.08997154935297
H         3.19538617604442   -2.68031679310709    0.33383350931802
H         4.84478255455730   -2.41626473973024   -0.18553607605132
