36
 energy: -47.839151509525 gnorm: 0.129703302442 xtb: 6.4.1 (79825abcba525fcdf90b791dcacef51065a7a4e7)
C         1.76110110029132    0.13463144958138    0.36448003890888
C         3.19887720218742    0.12748968426335   -0.20446418859906
C         3.50723024417277    1.56668251309974   -0.57376911346615
C         4.09787262962870    1.81674735956626    0.88142821739195
N         3.25822408458965    2.55171606914688    1.81915110289170
C         3.95062697591850    3.74816483808036    2.38182847442125
C         4.21804572462681    3.51860424821627    3.90661133052471
N         4.89628240269727    2.26983634987315    4.28776676731256
C         5.23091842143706    3.68913870351645    1.58070735244621
C         5.32916673059670    2.57136892791934    0.87474020308535
C         6.38973197846405    1.82906507362092    0.19051104760946
C         5.88876013054047    0.36654707193759    0.10728055649844
C         4.47654654120684    0.34195803173471    0.86902215325937
C         4.21124123095471   -0.92211636477033    1.68760988568977
C         3.90868754334517   -1.94900530808430    0.58440888892555
O         3.58405781846809   -1.19517780371012   -0.60957319402785
H         1.39909081500231   -0.89241545735857    0.48281991400860
H         1.22392573829753    0.67937472348291   -0.41331489444129
H         1.58963168854271    0.64320133074461    1.32459185913123
H         2.67818441048986    2.21659550289512   -0.87394029760874
H         4.34950322906817    1.59433535937636   -1.27984240324105
H         2.39347873939810    2.80097204474349    1.33199164751834
H         3.35041453747475    4.66174443059925    2.38385009919648
H         3.31006255370393    3.58811738158040    4.51642884980443
H         4.90651482107710    4.32914602029707    4.18290658926055
H         5.50351207083462    1.93701679053024    3.53724916537490
H         4.26071502143831    1.50054648575576    4.51080286255163
H         6.05054056894083    4.36807089912181    1.75046106478145
H         7.28199844816400    1.94369614036176    0.81744445938128
H         6.54020244806026    2.39021909216478   -0.73755364584430
H         6.65935426300927   -0.31540664440876    0.49545337379422
H         5.77992676495379    0.10191413283081   -0.94926984001341
H         3.29866066591599   -0.85848674872046    2.28659268012372
H         5.08511780290592   -1.23658702581266    2.27469437224924
H         3.17395393620563   -2.74861197600695    0.74682693869105
H         4.83445243399207   -2.49635097417291    0.39519174994212
