36
 energy: -47.847506160306 gnorm: 0.125794905299 xtb: 6.4.1 (79825abcba525fcdf90b791dcacef51065a7a4e7)
C         1.97376239096288   -0.51604201699191    0.70739943883682
C         3.20527792325440   -0.07878680204575   -0.11911494851749
C         3.22268750763930    1.41489692773176   -0.38622831473780
C         4.03747114127927    1.63493921583937    0.96162152703790
N         3.24479927075483    2.02903898323688    2.11958076645905
C         3.75827721407275    3.33456154978374    2.62896124901289
C         4.08394322112736    3.15942452230421    4.14963290301895
N         4.36813021391486    4.47977881147701    4.73324923238220
C         5.03610515487958    3.51456278957358    1.84208093200116
C         5.17378301424771    2.52618484462888    0.96938081433035
C         6.14666137989635    2.11097990220637   -0.04308931661400
C         5.89494073396028    0.58707037319528   -0.14889800180715
C         4.61079165294306    0.24045040782195    0.74888695431697
C         4.91695010189133   -1.18228517719477    1.21840517219564
C         4.53294274517149   -1.90362924766227   -0.08362906694519
O         3.57210519648316   -1.21298573728514   -0.91971299147333
H         1.06779872442524   -0.41727292054268    0.09965309139829
H         1.79567508612897    0.03285563788899    1.63328487546891
H         2.03469203050699   -1.60031693934009    0.88202836437356
H         2.26099813649526    1.90838745683995   -0.56350577494272
H         3.73932372167263    1.51896490638063   -1.35110387610049
H         2.23785732117174    2.12045055335657    1.96162750166224
H         3.03855587332085    4.13945068661813    2.45854587880961
H         4.90279790529847    2.44156338324887    4.27330711433367
H         3.19307692709581    2.74109153049776    4.63816282457582
H         3.65160496582437    5.03157186834727    4.25902419233116
H         5.29647126131427    4.71765260476802    4.37674278604303
H         5.78189412451319    4.26089613179830    2.06192424775587
H         7.19998030686918    2.30856959671855    0.18886499709467
H         5.94778512458580    2.70853750609534   -0.93875243592081
H         6.76885629394439    0.02518278282728    0.21180720679533
H         5.71264868361672    0.25949773999024   -1.17731416809326
H         4.23610732479083   -1.49616093452225    2.01437472689507
H         5.94169198531056   -1.41910261519436    1.53627596414139
H         4.10346560740027   -2.88422724904098    0.16042187983705
H         5.42669204468431   -2.03132089267723   -0.69790756348261
