36
 energy: -47.829314772449 gnorm: 0.138980306965 xtb: 6.4.1 (79825abcba525fcdf90b791dcacef51065a7a4e7)
C         1.96430946299369   -0.49721819458566    0.65756431177323
C         3.16881428737684   -0.06219040371076   -0.20896186602543
C         3.20554684426599    1.44680042946268   -0.36497828760880
C         4.09561092888494    1.65290208665577    0.93667381142994
N         3.44335031921543    2.03933809945570    2.18155782721041
C         3.97663583301358    3.35392520724067    2.64522208796200
C         4.49172512197067    3.31827559745507    4.12257977735197
N         3.82525592880034    4.37914208234479    4.89399849290070
C         5.17503472406413    3.50720585869155    1.73705334843112
C         5.22661472650904    2.54423392030613    0.82739617371731
C         6.34490245201249    1.99035029323284    0.06147927135228
C         5.85653858206430    0.57500352580895   -0.33241572931819
C         4.60162150152596    0.25333138087561    0.61463878765799
C         4.71912741849828   -1.17510479394466    1.14766723727386
C         4.31584540169749   -1.99929762429821   -0.08568667373035
O         3.56331905586249   -1.18239922640243   -1.01607083475087
H         2.33361737286095   -1.08057928317342    1.50796576481543
H         1.07793060511166   -0.91763093410726    0.18022458229824
H         1.47994817614636    0.40455882608031    1.06012131294854
H         2.23570215502760    1.95223685538054   -0.30380694062090
H         3.58723491620974    1.81684028822752   -1.32732577515670
H         2.44091628370753    1.83452710209425    2.16116522483905
H         3.17654550231207    4.08445136787232    2.50005418686122
H         5.56424813780916    3.53275406800691    4.19212319865672
H         4.37766323643196    2.42871493682143    4.75738561676515
H         2.85780406073124    4.06526944510568    4.98507126086753
H         3.90672554072495    5.31230686944054    4.48404230948241
H         5.85827757573984    4.31916073822768    1.92534620156022
H         7.14507086946042    1.82604375521725    0.79295661427322
H         6.79813953632597    2.54532703937259   -0.76641942118275
H         6.68370440731056   -0.11435109110377   -0.10849335757764
H         5.68392269836393    0.49760093541739   -1.41055608904913
H         4.07887962429933   -1.39936810113952    2.00523422741612
H         5.74574784890643   -1.46562347551308    1.41009749917822
H         3.67974579145021   -2.85451919780801    0.17805043720293
H         5.21932861485152   -2.42530459943740   -0.52689771069725
