36
 energy: -47.843423553727 gnorm: 0.136032876360 xtb: 6.4.1 (79825abcba525fcdf90b791dcacef51065a7a4e7)
C         1.72749904829244    0.11973432021261    0.45742404382689
C         3.11435681727180    0.29253814618420   -0.20417479467555
C         3.58579181081093    1.70675832537005   -0.48785427539711
C         4.11576405718297    1.83593905958545    1.00594352997929
N         3.29446307855907    2.34650215831436    2.09649519594256
C         3.97543074017910    3.60893656254359    2.50887809245277
C         4.26304521122915    3.53531136336523    4.04544271738007
N         4.80366493384799    2.20006538561007    4.34469881052622
C         5.32099618665670    3.59305187686043    1.82067272057646
C         5.39377990370390    2.50578190034564    1.06569049059244
C         6.39931328663948    1.84428349809370    0.23184056047960
C         5.82833955246795    0.42066425807029    0.02170661277256
C         4.44185460409863    0.35934512983783    0.82737500301318
C         4.30444041525962   -1.05335798837731    1.39636017374648
C         3.87878419969694   -1.82617488215793    0.13752622502626
O         3.37041658821174   -0.94193672652752   -0.89151159457123
H         1.47896517332111    1.01745292330785    1.03380355648127
H         1.69256151932411   -0.73543254592654    1.13398635640613
H         0.94906894401329    0.03321583026151   -0.31485887783021
H         2.76651120375015    2.39356886271821   -0.72634369344443
H         4.44844883653200    1.82643579527641   -1.15884467232588
H         2.38156687867072    2.58165214931220    1.69829625802951
H         3.32579548641563    4.47806699310378    2.37669238882975
H         3.38621368104681    3.73370146422593    4.67230056023742
H         5.05627472826201    4.22832455770091    4.35821480034151
H         5.54399817123956    1.93104627556245    3.69484589293302
H         4.02551089978356    1.59105042313869    4.08187764924390
H         6.13421833455147    4.29736945725064    1.88511037750712
H         7.38216085912939    1.75399908190801    0.70952730901207
H         6.62099910238224    2.41131430645649   -0.67819830956193
H         6.54613052390615   -0.25479066044085    0.50965240029467
H         5.83707598451635    0.10397212451151   -1.02605471985425
H         3.59355353756148   -1.02504239986437    2.22670376377899
H         5.19788793732365   -1.59968354827232    1.72877582418156
H         3.08831759862727   -2.56701775362041    0.31612720563835
H         4.72368099826710   -2.35301448950913   -0.31082683447575
