36
 energy: -47.841693866733 gnorm: 0.139339772362 xtb: 6.4.1 (79825abcba525fcdf90b791dcacef51065a7a4e7)
C         1.72026276246506   -0.10945493915519    0.43409113629441
C         3.10674881236985    0.15781466844594   -0.19612473467724
C         3.38836050843870    1.63235180739079   -0.41788763414377
C         4.15743688183642    1.72039517895677    0.97127037777187
N         3.45122347681427    2.33144896600638    2.09037215197699
C         4.03388389307645    3.68185161153276    2.34421610687184
C         4.07724385040627    3.99115244794473    3.87771749511710
N         4.79651888606887    2.96252301464299    4.64535714250645
C         5.38223929494307    3.56079711697134    1.67212323687310
C         5.40132174871209    2.45357529361477    0.94332471637092
C         6.49313160371539    1.66641821614023    0.36685429626295
C         5.81965313977525    0.29753074892096    0.10335315052777
C         4.40983518099291    0.22245902742103    0.86622903463981
C         4.22640428979859   -1.19598152233665    1.40728022013639
C         4.05405554387673   -1.92761107791976    0.06634541319689
O         3.41660041023707   -1.05535131443507   -0.89908062156686
H         1.43700200083641   -1.16701110933976    0.39917114776338
H         0.96755039554861    0.40738490910691   -0.16304220226683
H         1.59893781078602    0.31732268595119    1.44057059464816
H         2.54027572157431    2.31247972573243   -0.55199520960339
H         3.99198161825911    1.87960165890823   -1.30289443001713
H         2.43037823634909    2.26179649298188    2.07421945406661
H         3.48289547161978    4.55620215944444    1.98811275243629
H         3.08620642989779    4.14135300458758    4.32091896479456
H         4.65044716026563    4.92767064794675    3.91868521630240
H         5.76193468610998    2.78992666989037    4.36082905183975
H         4.42519939071046    2.04710704280484    4.38147588168116
H         6.12351125049261    4.33603641581282    1.56692997275783
H         7.35756350586154    1.53735225348957    1.02899076215157
H         6.92564894587292    2.01682174578329   -0.57600591946958
H         6.52334969035704   -0.36037344893219    0.63394483523789
H         5.74722693576440    0.03931759103561   -0.95789820290641
H         3.29596550576431   -1.22795364386996    1.98077288519401
H         5.09461690000831   -1.66520571501102    1.89024580110394
H         3.33470041260352   -2.71010557949869    0.34168967149450
H         4.93158547749672   -2.38039783444148   -0.39986956222303
