36
 energy: -47.844866900959 gnorm: 0.137764494157 xtb: 6.4.1 (79825abcba525fcdf90b791dcacef51065a7a4e7)
C         1.80883814199593   -0.04412996315411    0.54998372776480
C         3.18674655788181    0.15846887763395   -0.12178313668137
C         3.49979503287772    1.58497590459912   -0.53387782385816
C         4.15551106408458    1.75323993488275    0.90511960962893
N         3.34399222520976    2.33896372995548    1.96477871296430
C         3.91083610639602    3.69031351381995    2.24772550863912
C         4.10671531939975    3.97058416442059    3.77489714475131
N         4.65172068225791    2.75295891738047    4.39543207601491
C         5.30891234513562    3.55800248830210    1.68888582672781
C         5.41014078333613    2.46747604221917    0.94192113641478
C         6.47909104187902    1.72088862405030    0.27563627542135
C         5.87005788938248    0.31490222835886    0.05396137187671
C         4.51221478633910    0.27293453406553    0.90818776773861
C         4.36445090595030   -1.10657620026528    1.55120607495914
C         3.83535229075015   -1.93778349633359    0.37127341595504
O         3.56140966343555   -1.07290055278549   -0.75840197106658
H         1.94770399312108    0.02053384326051    1.63461084324662
H         1.48270267365924   -1.06338155514580    0.33778240038498
H         1.08286844612972    0.66896026162652    0.13245515189351
H         2.57608199260837    2.15876476772540   -0.66551037298013
H         4.24315814149734    1.79332395597157   -1.31664872236011
H         2.33241627944768    2.46104111943789    1.86965493515164
H         3.31537829012024    4.48634314329497    1.79313396329729
H         3.14007309328756    4.05515362141497    4.28440053971777
H         4.63483743650762    4.93118322130320    3.85001831070153
H         5.59683930825749    2.53651946414300    4.07499777749489
H         3.95062852389040    2.03771832670614    4.18952295068500
H         6.07991752128317    4.30691956916157    1.76775166374443
H         7.38819746747673    1.67077133771485    0.88665094912439
H         6.75746742420112    2.09434660569641   -0.71525974342464
H         6.52702099978715   -0.48934633154041    0.41609116959561
H         5.87592395971704    0.15877505532747   -1.02944246234250
H         3.72708594067289   -1.15846660725428    2.43817034161036
H         5.36019793185009   -1.44773422908043    1.86635562680140
H         2.90923674478538   -2.42615368267303    0.70201266790636
H         4.54781911386761   -2.71491119127885    0.08685367816342
