36
 energy: -47.837241667576 gnorm: 0.128832526054 xtb: 6.4.1 (79825abcba525fcdf90b791dcacef51065a7a4e7)
C         1.72815685022223    0.00465002602127    0.44111355445799
C         3.17701679335198    0.06407446164322   -0.09574978403674
C         3.50362073664561    1.47439069699163   -0.55081207853319
C         4.10248823991189    1.73304559772162    0.89951392455102
N         3.26555876996067    2.41511232123695    1.87872124244300
C         3.93328225879531    3.68582703036682    2.28731239885892
C         4.16661867067717    3.83806050084371    3.82729704726307
N         4.97894971172164    2.83144711940870    4.52840581986296
C         5.27152028736758    3.64288758232661    1.58609879411604
C         5.32371498250804    2.50381200680764    0.90990784566149
C         6.39050634626783    1.75241169534591    0.24557585827360
C         5.82202545153762    0.32368656641923    0.06548419661582
C         4.48274935691835    0.25938354853476    0.94719093917964
C         4.21167539342905   -1.06555376932245    1.66092541366371
C         4.08166014658923   -1.94088308957045    0.40395019894721
O         3.51887996712167   -1.19217488540216   -0.70146740121677
H         1.41658292963716    0.99567487077212    0.78849312678878
H         1.52383995718820   -0.71808814733855    1.23242367144970
H         1.14073494438403   -0.36855470884938   -0.41065725733189
H         2.58689224581237    2.04692201531143   -0.72864174925476
H         4.28940933888048    1.45924131958111   -1.31959990705359
H         2.28292571730059    2.56724901839939    1.63680365574037
H         3.35685814553124    4.52757500734079    1.89477919324796
H         3.21403564817205    4.01855488298870    4.33832570495104
H         4.75350316235113    4.74723448496846    4.01775963161299
H         5.53174205807022    2.37588925174622    3.80062765927622
H         4.40941059632758    2.08835626149715    4.93942779592656
H         5.96734075047006    4.46121674460482    1.49825235365243
H         7.36815046307435    1.83534250368294    0.73512638683905
H         6.61252576884309    2.23914186658842   -0.70974628536828
H         6.52639985489976   -0.35585857346310    0.56711097207595
H         5.77560580658422    0.06778916258850   -0.99778236531938
H         3.24410091672952   -0.93709719877348    2.15380566801161
H         4.99567207685608   -1.53728843417862    2.26923115499809
H         3.49642472032811   -2.86730051002690    0.47347844125277
H         5.04387217826201   -2.24719384049606   -0.01168517811743
