36
 energy: -47.839407632623 gnorm: 0.144701970784 xtb: 6.4.1 (79825abcba525fcdf90b791dcacef51065a7a4e7)
C         1.83774086253689   -0.02617076802147    0.56816195239281
C         3.17061275879284    0.11402574909062   -0.20303588231633
C         3.43748068371795    1.56678945192689   -0.55089053883571
C         4.12747974947610    1.83838089180737    0.85592484368712
N         3.31324946634047    2.52166813474644    1.85325151005916
C         4.06184423512427    3.71106221348305    2.35571029808305
C         4.14150165626489    3.63501896150518    3.91681430388807
N         4.64670827888298    2.33568904496832    4.38714796473347
C         5.42432958118790    3.58145969882653    1.71441303516279
C         5.36296349830576    2.58600537770068    0.84105370841542
C         6.43451268688447    1.84273899354740    0.17523045056458
C         5.83547866033323    0.41820324602869    0.08187551954343
C         4.44166075217150    0.34857848428126    0.87410410155022
C         4.17043139429375   -0.95760336716114    1.62155341084210
C         4.06036104528434   -1.87504847804037    0.39302947775393
O         3.54083478549330   -1.15908113561369   -0.75445333529541
H         1.60299370416524   -1.01562861917020    0.97528362287522
H         0.95504209109527    0.12910312735363   -0.05393165834252
H         1.81574819492788    0.64659150593859    1.43808553184072
H         2.52807952155378    2.08775201767210   -0.86931504667095
H         4.21210081525793    1.65051166300897   -1.32657230253998
H         2.37717919416443    2.80133923615510    1.54863057531300
H         3.59947621533714    4.67345221646788    2.12138569823101
H         3.14118284427824    3.72669333477817    4.35510758551254
H         4.81887914710422    4.44498499375309    4.22082333337074
H         5.52856588018800    2.02298479787146    3.97810441687997
H         3.90926471143199    1.71666663348397    4.04292982608214
H         6.25152621834985    4.21719952545080    1.98483180558646
H         7.44317137116913    1.84820997489551    0.60523391034115
H         6.51264914059820    2.28581561284952   -0.82297647673499
H         6.59618947501050   -0.23107922762204    0.53937485572834
H         5.80047561875361    0.30260327432187   -1.00605162259914
H         3.23607938930885   -1.04130184976367    2.18334812632558
H         4.98207812007736   -1.21719343333244    2.31514035092927
H         3.23928281728475   -2.55924608914211    0.64460071184662
H         4.95972939240557   -2.38446797044732    0.04080881704819
