36
 energy: -47.839283193684 gnorm: 0.137383316490 xtb: 6.4.1 (79825abcba525fcdf90b791dcacef51065a7a4e7)
C         1.68417059145854   -0.01424504093519    0.47811796951737
C         3.09366421018250    0.11482913948936   -0.14447038805196
C         3.44088030727910    1.54598319797165   -0.51050697540745
C         4.13972051343141    1.82145397994933    0.89118071084208
N         3.29988240782032    2.58918834220699    1.80209718029792
C         4.07388622537779    3.74779906962807    2.33693970276956
C         3.99803919131453    3.60510499004260    3.89355759098085
N         4.90103563693445    2.62559103271575    4.51794173006005
C         5.39412412698589    3.66765036673311    1.60552093733700
C         5.39713159200331    2.53101208153248    0.92324825519883
C         6.40392340856098    1.71344727861056    0.24358565203818
C         5.74121307840232    0.33167318350797    0.02364386584538
C         4.39676563786334    0.32065218790616    0.89973844720049
C         4.31455420666838   -1.01344723721315    1.64255531349629
C         4.09998473192379   -1.87778198248658    0.38956789940248
O         3.44532803534082   -1.16626274237193   -0.68950511078485
H         1.44397712753293   -1.06691811702787    0.66269212420375
H         1.11806138743282    0.36083004867701   -0.37575942757985
H         1.49958386795103    0.56637904647471    1.39390353591339
H         2.70710816403251    2.26622240411786   -0.88818483875702
H         4.22432960086685    1.48996418508693   -1.27979042805058
H         2.47892496413484    2.87856707120734    1.26402077609888
H         3.54270790741297    4.67964968158897    2.12624854963147
H         2.96248008319028    3.32466189935675    4.11741452893205
H         4.21971910395822    4.54260588515442    4.42200515132629
H         5.85877197531279    2.93550469368814    4.34627918621562
H         4.67553931661463    1.70495065916506    4.13444387835796
H         6.29295657239528    4.24618324823112    1.74316421164300
H         7.22307947401165    1.51020534839314    0.94358658232942
H         6.83658250567306    2.13517582264167   -0.66953560400440
H         6.41194289209407   -0.52043026642065    0.20693475679766
H         5.34412506251770    0.15020007989852   -0.98013033875824
H         3.47018009462602   -1.04578756036416    2.33654297600964
H         5.19670706882988   -1.39303728396963    2.17635114734474
H         3.47135442200061   -2.75612106324461    0.58687048234840
H         5.05571069813963   -2.25796213226019    0.02285006742538
