36
 energy: -47.844291010484 gnorm: 0.144963913949 xtb: 6.4.1 (79825abcba525fcdf90b791dcacef51065a7a4e7)
C         1.84290756486891   -0.08832111698420    0.44241269057220
C         3.22332025491759    0.13652441562771   -0.21702187082311
C         3.42451521700882    1.60284516063211   -0.55193645800035
C         4.00988162432902    1.80690274837373    0.91254188137546
N         3.13717244340178    2.59883750380308    1.77028948617364
C         3.86617749965870    3.73114183932118    2.41368343864270
C         4.21312656863686    3.47001186171094    3.91721630938563
N         5.35507989399840    2.55783015006313    4.08625136083941
C         5.11842885201219    3.74376061582132    1.56743723764691
C         5.23823744712408    2.56372952076339    0.97530200394567
C         6.29011735127524    1.83415764215557    0.26448786792057
C         5.82632308027619    0.35743154726434    0.29664254387836
C         4.37925246644768    0.33172783359643    0.98984385270059
C         4.15484592104584   -1.03936597185110    1.62867119893357
C         4.05908720326997   -1.92798806450293    0.37796215058995
O         3.58973984246037   -1.14630929588621   -0.74805957996291
H         1.70939247302309   -1.12167443539362    0.78040049987185
H         1.01542483102579    0.21537755345670   -0.20047688397775
H         1.85238254288443    0.51204833885798    1.36400182247375
H         2.46957623704436    2.07644074338223   -0.80413756913495
H         4.15412264967791    1.83326455480347   -1.34143494061002
H         2.12884755270858    2.69687538347576    1.62569728139123
H         3.30740855113177    4.67048172037692    2.39623125656687
H         3.29724255968923    3.08055977390404    4.37615690759149
H         4.52584731732681    4.37725723808129    4.45239692812063
H         6.16483037977352    2.93275719871223    3.58975638780624
H         5.12051575201019    1.62746377822867    3.73284512507368
H         5.90229147188398    4.47007418360767    1.70734331191594
H         7.20849911796232    2.07763954907670    0.81186043705740
H         6.36373131481914    2.09898761749330   -0.79536369729329
H         6.52150740972651   -0.25236257554269    0.89197790581403
H         5.80087444892559   -0.00014377167234   -0.73760418259546
H         3.20935002941154   -1.01870107149536    2.17752717893167
H         4.91870435787464   -1.33837508692332    2.35965279883394
H         3.35182343940534   -2.74144024232680    0.58690577805112
H         5.01062361343273   -2.40736595815428    0.13878369242616
