36
 energy: -47.837526552810 gnorm: 0.126607925019 xtb: 6.4.1 (79825abcba525fcdf90b791dcacef51065a7a4e7)
C         1.82627729309221    0.10812609349238    0.64093057142555
C         3.18956985528598    0.07168892686480   -0.08780420523782
C         3.45580817262786    1.48227844372436   -0.57983885406633
C         4.07776283511165    1.79190460561485    0.85064853713668
N         3.27507891698495    2.48314011354202    1.85185026086497
C         3.99814971724226    3.73922443305608    2.20813389627117
C         4.11952328877933    3.68631595271728    3.76750644424980
N         4.53216245855366    2.39086150991490    4.32985190542837
C         5.33881643535066    3.67101102764983    1.51359448993809
C         5.27457954355040    2.59312206389580    0.74451672152340
C         6.32759995175704    1.82743379213688    0.07455203941786
C         5.93144365114297    0.34624358239496    0.28901592240730
C         4.47643581860859    0.32684645554361    0.96560889326498
C         4.33424945370854   -1.02303175287412    1.66985936897653
C         4.06142806268016   -1.95803489180628    0.48056138463347
O         3.48437546585215   -1.22554559395765   -0.62835849940721
H         1.90440617049157    0.37114966035294    1.70140009136808
H         1.16003278297752   -0.74659713073945    0.51509724276464
H         1.23230766757205    0.92389086109350    0.20322323172677
H         2.63272818698840    2.06534695063554   -1.00689516046197
H         4.22716552350788    1.50565978638856   -1.36290277571395
H         2.32245256028057    2.74873369527482    1.58879044327524
H         3.46673796184328    4.63941499386973    1.88853224062093
H         3.13169025733681    3.86636615529184    4.20672249892997
H         4.84290253489603    4.45715804211980    4.06722575840477
H         5.49004597479151    2.49511229359458    4.66802987877331
H         4.50113282650402    1.72248054793008    3.55667537964824
H         6.10215680378024    4.43124391738799    1.54364690348881
H         7.23931907323451    2.12188060119229    0.60783859681984
H         6.62260787877073    2.14681612516938   -0.93033826586505
H         6.69192037538862   -0.19847696255312    0.86738345269599
H         5.78471039092582   -0.17882159742013   -0.66016790359943
H         3.44267712562293   -1.15180010301854    2.28965764635786
H         5.25745111129551   -1.27690229894555    2.20881085003786
H         3.53189704862794   -2.83468828454145    0.87636392563401
H         4.97045847540251   -2.43415394765176    0.10719107026222
