36
 energy: -47.841361870524 gnorm: 0.130418415033 xtb: 6.4.1 (79825abcba525fcdf90b791dcacef51065a7a4e7)
C         1.78873315749749    0.01153059775789    0.51309062491284
C         3.18190839147013    0.09726938736089   -0.15223657254384
C         3.45168735892650    1.53712983201277   -0.54817208429593
C         4.08609518664440    1.77784744432570    0.89008097809202
N         3.32537273002746    2.55196716614709    1.86299047710408
C         4.08498909683631    3.75589512239877    2.31138505627645
C         4.08415344324735    3.78404312365868    3.87611525932914
N         4.68023469259616    2.57881948746926    4.47346679148169
C         5.37790630999938    3.55599409825986    1.55452973026555
C         5.33476662841170    2.49240775889664    0.76435589978855
C         6.39157544921896    1.76528916148597    0.05835529352306
C         5.94680433475537    0.31553695777718    0.37021456709834
C         4.44638702839290    0.29922181545027    0.93914673636572
C         4.20233229560126   -1.04110509848423    1.63363785828833
C         3.98345994708038   -1.92390632794982    0.39434412510277
O         3.49969017786317   -1.17128533886292   -0.74528828725537
H         1.72182659737263    0.26683695817334    1.57621023052367
H         1.44182808030767   -1.00915320499431    0.34537358840924
H         1.24652536318342    0.81281310979084   -0.01018447535741
H         2.51935721320187    2.11128743227757   -0.57834113682195
H         4.13536359885529    1.66039339994300   -1.40029933310591
H         2.34824985924012    2.59573439790153    1.56207068925206
H         3.62554604796510    4.69805225686350    2.00132257432370
H         3.04595004407713    3.93377349504879    4.19369586193994
H         4.53485845762483    4.72783999209083    4.21289292409715
H         5.64394872430484    2.60277754629921    4.13663645586931
H         4.31347653500957    1.80017538042690    3.92147068861983
H         6.12001419935666    4.33729525012258    1.53477865295409
H         7.43112046222745    1.87575272363616    0.38921661491246
H         6.43059053385110    1.92291602322241   -1.02445164717701
H         6.61937604852888   -0.06296869153219    1.15375466007201
H         6.08808086879106   -0.32048494315602   -0.50938256455585
H         3.37021423846963   -1.16241517459337    2.33256261578785
H         5.12175319465442   -1.38219010294008    2.12916432584054
H         3.29774651274219   -2.73932703748148    0.65980611615556
H         4.89577681417209   -2.40294845129946    0.03291969995663
