36
 energy: -47.838720288478 gnorm: 0.124545183525 xtb: 6.4.1 (79825abcba525fcdf90b791dcacef51065a7a4e7)
C         1.73408666995177   -0.15316554797792    0.47794722713872
C         3.11366440240077    0.13103176145938   -0.15997583616319
C         3.40225394973341    1.61271253794150   -0.31515921312772
C         4.18253274313327    1.63991745413507    1.07027033616152
N         3.53695729926931    2.18769690863879    2.25672847740323
C         4.03656575355188    3.59108791459580    2.34839259663866
C         4.05390946654119    4.21219593773650    3.78474130877302
N         4.70613640095679    3.33267242808687    4.76746412838106
C         5.43791215689504    3.44505337383423    1.80128430633151
C         5.42225305839518    2.37851048758072    1.01407868538587
C         6.43524549148914    1.71761006110462    0.18882710853074
C         5.88993993995352    0.27122263671460    0.10243093969632
C         4.46786865878086    0.16235665656324    0.83800118415956
C         4.30636933123009   -1.30140066218221    1.24993489490713
C         3.92856460006255   -1.96256368449184   -0.08543738649064
O         3.41659804655532   -0.97942999827127   -1.01848185823286
H         1.29573477993472   -1.13864932953039    0.28676547774542
H         1.10364025569728    0.66045178181523    0.11624054530834
H         1.80065503624015   -0.01150796568203    1.56669034327210
H         2.53115479739966    2.27249125960016   -0.23976073039512
H         4.15263963102579    1.84288291665175   -1.08501041859366
H         2.53440683697021    2.16002766202986    2.05334615608625
H         3.44047723427678    4.26963799664002    1.73265321710432
H         3.06058236275725    4.44470680571535    4.18521962446804
H         4.50818552068553    5.21028813087018    3.71580676835004
H         5.53354162826037    2.95826081630995    4.30057020754061
H         4.10184093176060    2.53067041851361    4.96012354711130
H         6.28845806573101    4.07640616876485    2.00005810663061
H         7.40775388674687    1.83255260711148    0.68212304339575
H         6.51346617284498    2.26723172096980   -0.75490846499006
H         6.47088694047324   -0.49384468971716    0.63789978879445
H         6.00596632377948   -0.11102582276584   -0.91668536293106
H         3.43223857743646   -1.37444617025253    1.90276886363385
H         5.11472151965494   -1.95111770619847    1.61277753188105
H         3.22515577583580   -2.80013974094988    0.01082421605352
H         4.77961536086004   -2.46071469591947   -0.55446746472936
