36
 energy: -47.842478764770 gnorm: 0.136325481646 xtb: 6.4.1 (79825abcba525fcdf90b791dcacef51065a7a4e7)
C         1.78913794655273    0.02694545502600    0.71552515732858
C         3.09584407574132    0.17005632499558   -0.09871499693893
C         3.44966895605592    1.59405851448666   -0.48571556507320
C         4.15274024426354    1.74885176928895    0.93228300817594
N         3.46340787074350    2.37340350510796    2.05445453016508
C         4.07409438455107    3.69443867356648    2.38527974599492
C         4.17485423861142    3.78763516668370    3.94423307799359
N         4.33200332964061    2.54017298622272    4.70833254744652
C         5.35904679072971    3.56272814651960    1.60043900687029
C         5.36985469070646    2.51315577715548    0.79066578465984
C         6.36545167233315    1.84789999604967   -0.05207059846078
C         5.87177194500202    0.38405650297166    0.04942602338317
C         4.48425722213045    0.26515796011692    0.84683941809041
C         4.47011553264225   -1.15459073519359    1.41470431570542
C         4.09161262831375   -1.90468136790163    0.12738474892483
O         3.40448915385625   -1.03891416495345   -0.80938739979689
H         1.06354923538225    0.80771193737900    0.46292697021275
H         1.92778342494842    0.16899357309951    1.78831000432156
H         1.26832871541555   -0.92750612967677    0.54927321888446
H         2.66195159795353    2.34880467435448   -0.58403251781298
H         4.21760072006453    1.75478512380385   -1.25589458051431
H         2.44809117106215    2.26055926421646    2.11475034068427
H         3.56265546464026    4.60470428433017    2.06165421862766
H         3.22988985073833    4.16584566931818    4.35060980488484
H         4.93453372029658    4.51605728967518    4.25981988482648
H         5.22481561191501    2.14008893784384    4.41577078954113
H         3.72183117066309    1.92138541580294    4.16954709128290
H         6.05187941976863    4.37628791635229    1.74061453156148
H         7.39166106755602    1.91868867929070    0.32767732932623
H         6.34472145261398    2.15520973533066   -1.10277048992617
H         6.57983390127011   -0.26117952836587    0.58967878410826
H         5.74682660446558   -0.06092947249586   -0.94281899427779
H         3.70919708480219   -1.17758718556678    2.19962895116444
H         5.39872735411178   -1.56408262571640    1.83567550105013
H         3.45320462383998   -2.79416619346406    0.21006414698597
H         4.96735461446519   -2.18234273939404   -0.46287889802161
