36
 energy: -47.841275806905 gnorm: 0.141657535102 xtb: 6.4.1 (79825abcba525fcdf90b791dcacef51065a7a4e7)
C         2.02697514993250   -0.14540808279457    0.82368192101336
C         3.22372144279249    0.03790306991063   -0.13816212718733
C         3.28663193355835    1.50695105127667   -0.51324079867833
C         4.15128321555964    1.74260807095934    0.80046925123135
N         3.41344750328590    2.21421447957893    1.96567256466801
C         4.00713823902500    3.53329899763764    2.33318391276680
C         4.52047467831155    3.51001391183308    3.81139807789847
N         3.70773261463076    3.02013963504162    4.93575534251480
C         5.21677684930942    3.69740496980859    1.44196621352117
C         5.32712049888343    2.57880488748750    0.73910791624304
C         6.43205030464495    1.89521922939262    0.06396052350812
C         5.93002105396166    0.45867949097077   -0.22095916392149
C         4.64318538574390    0.30354036093762    0.72518453962170
C         4.60162827323296   -1.03824444953860    1.45747095127382
C         4.12723360794876   -1.93169901876127    0.29998198726036
O         3.55796923243038   -1.18860630824114   -0.80590447547524
H         1.73556756355387   -1.15880929294295    1.12029736879609
H         1.21339665131074    0.42932995645547    0.37867206430333
H         2.26972495473146    0.46369639144476    1.70681501201829
H         2.31464419262440    2.01015646253503   -0.47045323188249
H         3.81669497385476    1.69286335455455   -1.45833219719994
H         2.39738505130850    2.30663152227460    2.04513067116553
H         3.32005643135421    4.37525481500898    2.21521899970906
H         4.83674869281684    4.52088690003315    4.09291090248832
H         5.40827791630023    2.86697430192807    3.73648345076354
H         3.16973679449400    2.20472110914957    4.63838936373734
H         2.95022110593995    3.66867672873550    5.16175057182900
H         5.85145361593968    4.55705265703402    1.58245461281484
H         7.30908904805931    1.95996109337019    0.71889317961440
H         6.67064141069920    2.31301720554046   -0.91958328177971
H         6.66897393420404   -0.30057593235425    0.07405636578148
H         5.66782917090838    0.32302647947534   -1.27501215694181
H         3.94538672739579   -0.96821507756996    2.32929393943040
H         5.61045841467250   -1.34168269426511    1.76957225678636
H         3.37371522248924   -2.63118532128920    0.68535566175780
H         4.88210352067381   -2.48400815579703   -0.26354003369387
