36
 energy: -47.841591312835 gnorm: 0.138205836279 xtb: 6.4.1 (79825abcba525fcdf90b791dcacef51065a7a4e7)
C         1.77425787316247    0.07325945617938    0.53117526586318
C         3.14036785647918    0.20142750223754   -0.18175188582046
C         3.43246114162118    1.61037578854875   -0.66371657893524
C         4.08590990413268    1.93806793955295    0.74859101205961
N         3.18675503699019    2.52255527008307    1.73571207733430
C         3.98272720646806    3.57416021795000    2.43433399793721
C         4.02812946549772    3.21850210879623    3.95769198715282
N         5.11184503366720    2.29276149952616    4.32275446851515
C         5.34879745274011    3.52052721354120    1.78981795744128
C         5.34448463468961    2.64479233389619    0.79456850369355
C         6.36420124257905    1.85177506001159    0.10515942142786
C         5.79858076733780    0.41516872983442   -0.00927290547644
C         4.44389937206180    0.46152967047851    0.84973296201046
C         4.34079026732324   -0.79563033388069    1.71418313753111
C         3.92985225239160   -1.74234643327646    0.57490676863870
O         3.56495332422816   -1.08323216958576   -0.66269201037149
H         1.08075376502772    0.85295016837387    0.19798527896117
H         1.84809907899125    0.03452353161304    1.61897789917783
H         1.43281235181658   -0.93510233179674    0.25462283305063
H         2.52840118793883    2.16937501933454   -0.92829567286418
H         4.20232115881903    1.65616652081091   -1.44726410319520
H         2.29400250869892    2.92683225923588    1.44110989567350
H         3.54628710022569    4.57404491644426    2.36623585893217
H         3.09406003897920    2.68408290456824    4.16518497645903
H         4.05736067520487    4.13652017982677    4.56076337092126
H         5.85975650314314    2.53539522983079    3.67119425985183
H         4.72073236570937    1.42780379042676    3.94278482388035
H         6.10411485300768    4.23598054518332    2.07118585004211
H         7.24616940684651    1.68891975136646    0.73598075942914
H         6.74050731022691    2.25817522149789   -0.83933618293852
H         6.55983020947385   -0.24122020290824    0.43705340653657
H         5.66945055314232   -0.05984111626044   -0.98695643161267
H         3.64043150709274   -0.61682079144813    2.53464468903177
H         5.27079092261750   -1.10693967445134    2.20956736546431
H         3.08525325454519   -2.38756730138303    0.85045436819125
H         4.72340764075971   -2.44947202604610    0.32455845548665
