36
 energy: -47.845783369579 gnorm: 0.133315214390 xtb: 6.4.1 (79825abcba525fcdf90b791dcacef51065a7a4e7)
C         1.74495208611788   -0.15192143463482    0.45716212106294
C         3.13484078667751    0.15606057285699   -0.14641483380049
C         3.30913569497821    1.64183170225829   -0.40106982692155
C         4.14008376563075    1.78015251907509    0.94777516929851
N         3.42283242556082    2.40614502018029    2.05149470893891
C         4.05424552388939    3.73477111596232    2.30366021899068
C         4.33051700830598    3.89181580806241    3.83603897267117
N         4.53226749675529    2.69828425681579    4.67239111216678
C         5.32702436266269    3.62628737747451    1.49576750651453
C         5.39181258637663    2.48865655258326    0.81823504648534
C         6.47060559246124    1.73330619799510    0.17820792061720
C         5.86116973471270    0.31249944692872    0.09601829017238
C         4.46101952377762    0.29322971681170    0.87986150225537
C         4.29532573445529   -1.09568443340148    1.49777731520912
C         3.94274491846826   -1.94053350903980    0.26286481200662
O         3.59769945352671   -1.03016067404716   -0.81016757675087
H         1.70179750893627   -0.99401392614250    1.15637527949789
H         1.13509886057564   -0.37699791658920   -0.41901547690728
H         1.39269829464476    0.77837020964581    0.92656015171184
H         2.33016352156611    2.12587862541834   -0.48544222042381
H         3.86809738904778    1.85748733477583   -1.32290627629595
H         2.41261465370564    2.43227491726918    1.89020404027191
H         3.49284223085437    4.61886710919656    1.99047122494253
H         3.39566246580545    4.27480882969524    4.26089924206855
H         5.17818205189272    4.57775398483130    3.97116678010263
H         5.43500123157424    2.23000463410424    4.57987408604890
H         3.87206165203108    1.93415791675935    4.51196334018992
H         6.01916570155636    4.45229535311566    1.48173475337636
H         7.38514359025643    1.79985432262058    0.77947063173078
H         6.82081478837658    2.13832919830252   -0.77685709150459
H         6.58286212175005   -0.31278940896761    0.64166310534058
H         5.88612547387259   -0.08117418025387   -0.92504602331169
H         3.52356349234883   -1.19660572177127    2.26578145299135
H         5.21185858466121   -1.50690090323579    1.94284900533779
H         3.05309136699231   -2.55883594300852    0.44119758152996
H         4.73128512500984   -2.52885629591377   -0.21096182583522
