36
 energy: -47.845759611481 gnorm: 0.141829572396 xtb: 6.4.1 (79825abcba525fcdf90b791dcacef51065a7a4e7)
C         1.73537071012567    0.04941253709365    0.47938170815868
C         3.08651985424580    0.20658925636094   -0.25590062144616
C         3.34769615976206    1.69149812185713   -0.42787821568051
C         4.06758427112387    1.73396238695130    0.98949540961046
N         3.34621973110412    2.29027711718557    2.12732667858870
C         3.89604486868209    3.66039835279959    2.34636396201500
C         4.20436063733011    3.78130277433713    3.87590542879256
N         5.04987543793421    2.76942986687295    4.52853369748177
C         5.26708333856092    3.55810322659419    1.71849890841510
C         5.32918789296805    2.43631512041530    1.01480431846228
C         6.46753354148597    1.62934002115052    0.57102108499654
C         5.78874017865353    0.37032113271573   -0.02140612542818
C         4.40618317068133    0.26338695544839    0.78624680415007
C         4.34612281168194   -1.15492225236147    1.35470840219201
C         4.05728547735357   -1.86838167837666    0.02405416769584
O         3.42896530516167   -1.00161576190542   -0.95224710407122
H         1.11011963804936   -0.56087884022963   -0.18128965195136
H         1.22110466611873    0.99939807388872    0.63210849789766
H         1.82593500926613   -0.52585885427554    1.41250587764097
H         2.38477478418840    2.20086578645641   -0.54248028660696
H         4.01799348125414    1.93213660385360   -1.26544766057014
H         2.34690601961303    2.38391382467023    1.92772294794090
H         3.21359350894871    4.44423724777737    2.00762593623311
H         3.28380813236250    3.75162709602586    4.46991330403695
H         4.68618366088351    4.74229382061278    4.10317071559752
H         5.97617728001642    2.74591339872278    4.09936558113637
H         4.71306093215263    1.80697001842202    4.45287050437006
H         5.99578020020247    4.33055689956725    1.90251500494604
H         7.05694753704817    1.36157308530754    1.45601670380511
H         7.09064758829522    2.00580844905198   -0.24680510862539
H         6.35194256691959   -0.57411866236766   -0.00163611839390
H         5.45360053185019    0.63302332010039   -1.02979245819306
H         3.50555378360271   -1.22990233904700    2.05001702260745
H         5.26198284279826   -1.52610537538358    1.83496221394532
H         3.43664815502887   -2.76248358534530    0.16888166182169
H         5.01859684292454   -2.11289354487410   -0.43259168538187
