36
 energy: -47.842145318946 gnorm: 0.141201971638 xtb: 6.4.1 (79825abcba525fcdf90b791dcacef51065a7a4e7)
C         1.77637728059289    0.08709866378085    0.31963964797044
C         3.24363443930135    0.10599636729151   -0.16795441016641
C         3.45263643837128    1.55292854484591   -0.57470884297439
C         4.11214092180891    1.85127219410423    0.84128375929628
N         3.24868189811483    2.52569006982301    1.80259117244194
C         3.98335206882016    3.71263963177380    2.33072725805386
C         4.21216488626771    3.55286733461512    3.87062696825702
N         4.80426452261944    2.27891654393277    4.30786045969535
C         5.29315106450689    3.64369253106255    1.57966253207823
C         5.33289971879222    2.61650612128135    0.74254858307135
C         6.30398930531729    1.77040252361223    0.04607393684358
C         5.86479279254217    0.34791063729704    0.47090599147165
C         4.37005010871006    0.36582370720949    1.05453732111986
C         4.10631290827799   -0.95047294486606    1.78676864104034
C         4.09718973013115   -1.85095071119334    0.54091606731781
O         3.67645555529467   -1.16922987914051   -0.66634241426258
H         1.72173453275605    0.65833282124581    1.25269207344822
H         1.36916220253005   -0.89781296875235    0.55286169168227
H         1.18237097906316    0.54112882203773   -0.48712730580627
H         2.55278136616167    2.07903574925886   -0.91127784790212
H         4.17794559183455    1.79450593230379   -1.36483222278573
H         2.34879929934497    2.69276007698866    1.34483980595326
H         3.48006973528962    4.67314370168130    2.19279409751138
H         3.29426508488538    3.79999096628187    4.41609262775264
H         4.87006553998022    4.40177770206518    4.10262836437279
H         5.76881842796777    2.20587160753538    3.98063943298247
H         4.40209635565926    1.50804728245435    3.76979054124598
H         6.11867251470196    4.33131155292768    1.66475154977996
H         7.36885868760326    2.00143810319927    0.16855257929186
H         6.12834439371513    1.89303907137725   -1.02768041868177
H         6.49270388225478   -0.10092573158982    1.25437768624030
H         5.89115796961994   -0.26687565086974   -0.43436564154192
H         3.22053555151358   -1.02169385527571    2.42391734926812
H         4.93362046907018   -1.09848941188553    2.49449286527381
H         3.31823238156894   -2.61836685402494    0.64032345928849
H         5.07545757559166   -2.31280156854142    0.39219873081424
