36
 energy: -47.843277337749 gnorm: 0.130266385139 xtb: 6.4.1 (79825abcba525fcdf90b791dcacef51065a7a4e7)
C         1.76907231325740    0.08072745248881    0.59158284968970
C         3.14974713784864    0.08301767370416   -0.10460706000302
C         3.48814902059540    1.50158978276125   -0.52398876442853
C         4.12552678004408    1.71831385788419    0.91676458113343
N         3.30264143552655    2.41173402322593    1.89989264465842
C         3.97085343499210    3.71941328082096    2.16632236845719
C         4.04468739647062    3.86958003727179    3.72233393541270
N         4.58370467923828    2.70202272212765    4.43715976694114
C         5.32241667268237    3.61845436011000    1.49736102305587
C         5.36350199336082    2.45940187633477    0.85520782315178
C         6.52452123429738    1.79887450071926    0.25544047663720
C         5.94467801333270    0.36666411690371    0.15841391482968
C         4.51143424096006    0.24608850165283    0.87008499518078
C         4.37598365719189   -1.09098693691729    1.59963211572820
C         3.98983845264016   -1.99689191755237    0.41924232893601
O         3.50083887785530   -1.18605715474014   -0.67741621136679
H         1.35253739820236   -0.88299132206717    0.27913141389495
H         1.14214869515645    0.93573174963845    0.33428539192468
H         1.69966122468280    0.12022905510354    1.68861589434565
H         2.61560607682483    2.12101966742524   -0.75804431688030
H         4.26761524369908    1.56672773625350   -1.29659303535292
H         2.31201860249068    2.53198902312826    1.67308334746164
H         3.41758573937701    4.57153691661890    1.76300261379554
H         3.07582661125320    4.11650848058905    4.17119696182956
H         4.73446698759410    4.68775551363985    3.97153207418109
H         5.44330330015480    2.46369666053259    3.94010414297584
H         3.88863382542898    1.95380788936718    4.38667257842341
H         6.17547049690344    4.26256608244339    1.63507400852427
H         7.35459554909730    1.70690127954823    0.96596333405990
H         6.76797511179124    2.17596912640225   -0.74324318394205
H         6.57697205687342   -0.37108247275957    0.67366965746773
H         5.87947236609502    0.15382747906773   -0.91332428542586
H         3.55018568624520   -0.89047606374849    2.28773490237845
H         5.31979722262625   -1.41122088262755    2.06211060705184
H         3.23892726372692   -2.74499904148868    0.70568955563868
H         4.89239915139886   -2.52375437153760    0.10264928064521
