36
 energy: -47.845688587564 gnorm: 0.129921858244 xtb: 6.4.1 (79825abcba525fcdf90b791dcacef51065a7a4e7)
C         1.75177765146078    0.02454091545118    0.56173080585564
C         3.14156467550904    0.13870152153663   -0.10640692676193
C         3.48520050654344    1.57694172725247   -0.44717552885154
C         4.14163176211085    1.74136671776110    0.99193966523979
N         3.29921605929756    2.54739828580185    1.86667493278757
C         4.05166682098255    3.75438029235373    2.31892432938061
C         4.02119082816534    3.77938100443291    3.88341139327605
N         4.83430045300619    2.71220314359594    4.48730696890775
C         5.43637001271797    3.54637124407305    1.74992994461723
C         5.39087823468310    2.46585994975718    0.98319827917191
C         6.42052200601042    1.74869072137496    0.22855585767306
C         5.89492355932113    0.29264153154818    0.20562047348081
C         4.46286898298425    0.25429972664852    0.92877445995325
C         4.21348535026325   -1.16531087403348    1.43952922265450
C         3.99162802713060   -1.93951235577206    0.13014636346887
O         3.41901644597043   -1.05113637506786   -0.86088222897563
H         1.65210624570989   -1.04583801534197    0.77205359096349
H         1.06084055449082    0.33824557469349   -0.22214601852197
H         1.63519262855386    0.55362564393834    1.51898577171577
H         2.58914676905778    2.19569643165545   -0.56565310059682
H         4.17107363762180    1.63533835979563   -1.30443618469321
H         2.46200366894591    2.82674559670847    1.34871945156458
H         3.63133818165362    4.63349310289323    1.82357473795370
H         2.99550556102329    3.66460237169420    4.25210979983294
H         4.30559946373797    4.77484098402218    4.25148459985270
H         5.83461345314926    2.89592300923714    4.39568649455690
H         4.54664204098741    1.88286885919724    3.96294528961918
H         6.27752247003577    4.16173782193745    2.02439711577797
H         7.38530517159637    1.72333842129201    0.74901329339116
H         6.52355992818045    2.22774796735024   -0.75058999995766
H         6.48670695575034   -0.38565337822111    0.83749288019484
H         5.82360563392139   -0.11749066073610   -0.80674278641720
H         3.29580766511388   -1.11735208568471    2.03215053906950
H         4.93634291163860   -1.74629477405912    2.02872776433729
H         3.24259444167944   -2.72696996662996    0.28648930351914
H         4.84203823437042   -2.41312479754238   -0.36475238853311
