36
 energy: -47.846057492093 gnorm: 0.140864467353 xtb: 6.4.1 (79825abcba525fcdf90b791dcacef51065a7a4e7)
C         1.82289064409501    0.04200144296658    0.52447435585918
C         3.16442171352582    0.13915944304809   -0.23828600776345
C         3.39308913540036    1.63528026885261   -0.34818331175059
C         4.18618021042581    1.65790270652695    1.03003471128044
N         3.47177529689240    2.19035804439434    2.18356400917663
C         3.97021444925042    3.58902545134607    2.33457767043545
C         3.89519759841036    4.00424014337581    3.84160880449631
N         4.84272726502269    3.26153955720919    4.68735645578546
C         5.37749135249075    3.44322060864704    1.80284654669717
C         5.42993835936937    2.39112980081447    0.99798265543316
C         6.49579604980343    1.61509149352082    0.36104062299399
C         5.84344602811821    0.25796308905110    0.00117819521786
C         4.46836696543003    0.17580441623985    0.82434867369736
C         4.23142909638041   -1.25300815230644    1.31497276433562
C         3.93337803313820   -1.93438319920916   -0.03038432125426
O         3.48691488773142   -1.00306259147117   -1.04652710976460
H         1.65776030685692   -0.92673832953565    1.00837139815480
H         1.06673499845204    0.11015535362011   -0.25901224080179
H         1.66311868134033    0.75482194574946    1.34680010738266
H         2.54615106156377    2.32606439085707   -0.42112048009577
H         4.01169638168307    1.93165832447359   -1.20737658653094
H         2.49692547167298    2.29318898213868    1.88974263408507
H         3.37783336840202    4.27591283855504    1.72453087229616
H         2.87278632452034    3.81483198781107    4.18793618912187
H         4.08019044891102    5.07020052235808    4.03347555098127
H         5.79854886152116    3.60080307712090    4.56870259295835
H         4.80273506065056    2.29102845388378    4.36797156132092
H         6.19414000800908    4.08747776792418    2.08491641583683
H         7.37247182827833    1.46316103566842    1.00188535378996
H         6.81131112019959    2.09994564777270   -0.56858616644914
H         6.43845622707991   -0.59604253355010    0.35641274126037
H         5.55468795925875    0.15750994443380   -1.04986984440485
H         3.45280053132001   -1.56199730776556    2.01774989182292
H         5.13306959217302   -1.66564660441904    1.78825300404009
H         3.16822316291482   -2.71163533628714    0.09611096558695
H         4.86868740325097   -2.35287169537496   -0.40786915381562
