36
 energy: -47.836178091228 gnorm: 0.130454908812 xtb: 6.4.1 (79825abcba525fcdf90b791dcacef51065a7a4e7)
C         1.76943174321063   -0.09032578585144    0.40075586275532
C         3.20228478799459    0.09812243898970   -0.14912419462935
C         3.52407287995203    1.56390115206788   -0.37426617620020
C         4.18809667481735    1.62858873479402    1.06929817854085
N         3.46910631854787    2.19136274580243    2.20545449102842
C         3.88962033570401    3.62327417713673    2.22319817902707
C         3.94193886086201    4.16860401733225    3.68916261813867
N         4.89149213947470    3.42250447349111    4.52963258042467
C         5.26208055648538    3.55840758981903    1.59345967907310
C         5.40992103590038    2.39314489404948    0.97883974322205
C         6.43056316664035    1.68693117203590    0.20196457574762
C         5.92815458735389    0.22570384708330    0.29819004136462
C         4.46827164467125    0.13602081965124    0.95841791804534
C         4.23883264406315   -1.28802628808908    1.46616241157168
C         3.74851345107717   -2.02375493533641    0.20863208190016
O         3.64589592352245   -1.06183370468029   -0.86998312685951
H         1.37968977853462   -0.97877128314523   -0.10781755351189
H         1.24517960492737    0.83863489192899    0.17171586981249
H         1.65234540657701   -0.35390525420942    1.46220602385844
H         2.59646518807983    2.14243764420908   -0.44242865377959
H         4.23856671529210    1.80556661676402   -1.17415636700469
H         2.46549064201955    2.10767251670177    2.02382601190560
H         3.23274188748256    4.21673205349383    1.58194536604196
H         2.97506386662452    4.10083041847249    4.20073118960521
H         4.18714037073338    5.23789343563664    3.75083181935297
H         5.75850181119019    3.61794870824219    4.02677158805283
H         4.71791810119657    2.41665030833241    4.46940517242932
H         5.92025295419977    4.41085120732732    1.55229306189197
H         7.44319313310126    1.69243245889342    0.62253030758975
H         6.56015731633645    2.24462374994198   -0.73132188728522
H         6.69177511363520   -0.37885814576264    0.80901565776832
H         6.02138928796723   -0.16697484681618   -0.71929940264282
H         3.60179679253897   -1.43988154829133    2.34180944328682
H         5.15461008832988   -1.83523266759247    1.72910177776511
H         2.83007683528504   -2.58400079625213    0.42813761142111
H         4.52939611822821   -2.71618101752219   -0.11261458202815
