36
 energy: -47.843633105778 gnorm: 0.128800013925 xtb: 6.4.1 (79825abcba525fcdf90b791dcacef51065a7a4e7)
C         1.72053799490634    0.08673014392818    0.51644216348841
C         3.10783771378062    0.24962511670715   -0.14674210121601
C         3.44872351282730    1.69660210176688   -0.45137006082186
C         4.15720652692118    1.80768485837410    0.96803212189485
N         3.35983632043313    2.38990676842098    2.04028735088711
C         4.00333504352782    3.67646839658347    2.43801313812401
C         4.33918557280165    3.58397432163864    3.96373357813026
N         4.73896807419274    2.24147195434245    4.41380808312089
C         5.32407563076064    3.65419046831166    1.70345660508204
C         5.39043622584354    2.55911732953681    0.95923708456734
C         6.49335989142523    1.79304927395268    0.37555711499099
C         5.86079201429752    0.40661972133011    0.10255532311044
C         4.45110527105272    0.31725547755817    0.86413223858807
C         4.24720063703300   -1.11576098329598    1.35732954426398
C         3.89403673106130   -1.82486393829680    0.03993046886047
O         3.46232825706170   -0.87535226456191   -0.96569816575669
H         1.60452967957015    0.78680011844620    1.35090320022569
H         1.61488824048393   -0.94175070457244    0.86477079573216
H         0.89576126228758    0.27582162742703   -0.18630070575877
H         2.53576504869538    2.30014652081205   -0.40611969806610
H         4.00546670455093    2.06377309739233   -1.32541264096474
H         2.33875741006344    2.32963465799338    2.00862461440980
H         3.36514450585164    4.55888528986584    2.34346164612726
H         3.39673840031342    3.72337198031979    4.50549416545312
H         5.01367364681324    4.34777489955887    4.37480686341984
H         5.69640383431898    1.95894499566351    4.19870652186738
H         4.03486680231571    1.66031114853264    3.95338283967561
H         6.07255905292351    4.42947634988678    1.71927037924527
H         7.36093200238029    1.74428167930140    1.04433629723825
H         6.92018739209915    2.14802720584792   -0.56818449407369
H         6.58067610811379   -0.36580561226328    0.41025697957500
H         5.70183280625941    0.18711035642463   -0.95797361962852
H         3.44551713377705   -1.17721996250053    2.09838201129684
H         5.10897502514590   -1.69596535732696    1.71499984486541
H         3.08722791136509   -2.56566592200908    0.11645409289319
H         4.76348779758129   -2.32857498414746   -0.38757515792257
