36
 energy: -47.839443106206 gnorm: 0.144970351094 xtb: 6.4.1 (79825abcba525fcdf90b791dcacef51065a7a4e7)
C         1.80311390460484   -0.02724258912118    0.63729930806467
C         3.17996878943083    0.10415569569401   -0.05404270052658
C         3.42732193434582    1.47426090037497   -0.65767493744377
C         4.11829095500674    1.90632719192466    0.70792775035241
N         3.20514957813817    2.65512437155962    1.56232141123909
C         3.99171922074179    3.70516383939967    2.27382865846017
C         3.96943522577249    3.29853285081543    3.78489724726700
N         5.02935359820779    2.31115716128545    4.04251714441834
C         5.33609991244535    3.62025744614347    1.58836764519177
C         5.34467748401849    2.66779148040628    0.66631197703956
C         6.44851574545988    1.86365287598519    0.13821594165743
C         5.98104296105825    0.40700584903223    0.37592935227314
C         4.48384480065062    0.44847230955338    0.95201989900458
C         4.18999869327112   -0.77743839121855    1.81755690707237
C         3.90474079067605   -1.82461669339859    0.72891664824214
O         3.52258543378745   -1.20823846276556   -0.52538345136154
H         1.68714910377975   -1.02241794971928    1.08008513375589
H         1.11746564870819    0.06934084787526   -0.20580547249076
H         1.67888162059102    0.74862202905811    1.40701368543495
H         2.60467934183138    2.11069118594477   -1.00121866976145
H         4.10651769150296    1.43142946484501   -1.52114847883161
H         2.44666714292283    3.10217579019543    1.04070198853277
H         3.49188561629597    4.66848609993780    2.14320200307114
H         2.95933986402456    3.01356240185951    4.10055865959351
H         4.26590506778991    4.25542127537703    4.23631380167253
H         5.77040524730553    2.41244080993401    3.34727799484317
H         4.63711007532426    1.36979214972927    3.96852509455144
H         6.16693915156884    4.28646446775716    1.75395777993590
H         7.44568778187721    2.05479428235564    0.55226684655718
H         6.54825573002642    2.04631123543821   -0.93673854097858
H         6.43296513089882   -0.05101784198792    1.26785702215937
H         5.96038108140466   -0.31082716167943   -0.45018377452608
H         3.36058925790669   -0.57674474941812    2.50124869775428
H         5.07912594073346   -1.04017048604066    2.40717105250028
H         3.04897548444462   -2.45776322945319    0.99794289600696
H         4.79615426628887   -2.43926505957219    0.58742304130502
