36
 energy: -47.847307992000 gnorm: 0.136734511570 xtb: 6.4.1 (79825abcba525fcdf90b791dcacef51065a7a4e7)
C         1.84348623969915   -0.05657748534183    0.48383801748979
C         3.23392690359450    0.16344170823019   -0.15586109904753
C         3.45911438620899    1.63599300071967   -0.44504443436991
C         4.12120114445527    1.75250037459893    0.99615550565040
N         3.28551850331936    2.47755841395294    1.94506974543849
C         4.02010442710400    3.73965725652431    2.25330221320002
C         4.16023392289903    3.87175736489871    3.80639167411787
N         4.67444356265509    2.65617265988528    4.45650549766310
C         5.38643172626304    3.59118007925900    1.62439082258017
C         5.35912929989025    2.48846612958901    0.88904864152889
C         6.32769154044400    1.74209587867258    0.08356629421858
C         5.91351775502485    0.26838406141526    0.31485087037200
C         4.45896740227804    0.26776018180047    0.99270407206394
C         4.19252101402352   -1.11556687195613    1.58748927723151
C         3.96950462174352   -1.93993735599445    0.30929951763343
O         3.67578957693666   -1.04562212681314   -0.79213832350228
H         1.64223371528598    0.43865256305410    1.43993724877568
H         1.64762090812122   -1.12095102581919    0.62172673907566
H         0.99108530018684    0.31947831003746   -0.10084519945480
H         2.48970378387613    2.10027385748618   -0.65597805741817
H         4.17338419074353    1.78121675503997   -1.26812198644333
H         2.35194307898214    2.65417830868838    1.56496485761994
H         3.44361321297100    4.54430479953020    1.78952756502329
H         3.11295377683189    4.00147032514491    4.10223243623011
H         4.83409415231611    4.70968687798337    4.03242983179707
H         5.62817919025410    2.51709244304405    4.11913560613183
H         4.04599104470751    1.92133359360329    4.12400456966621
H         6.18914360300950    4.30078638845089    1.74125928080131
H         7.37204998568059    1.83495526388753    0.40453016980256
H         6.33142607077289    2.07690442354991   -0.95889644525158
H         6.56168618710943   -0.30143127904499    0.99657110170277
H         5.88013541736018   -0.31302072935346   -0.61198682703805
H         3.35606700379622   -0.92062173387053    2.26422665391336
H         4.99606805420603   -1.63124002514679    2.13119287934307
H         3.16836106716004   -2.68990396516799    0.34539668312325
H         4.93600400370825   -2.41590238767540    0.13106577372850
