36
 energy: -47.836075296030 gnorm: 0.152341781712 xtb: 6.4.1 (79825abcba525fcdf90b791dcacef51065a7a4e7)
C         1.70903725835771   -0.10381983057980    0.40552337660397
C         3.10582851713558    0.17306429963821   -0.19718552392149
C         3.42863803410926    1.62328867008174   -0.50603342445212
C         4.17102189650993    1.80104966731820    0.88904986092986
N         3.38603589585595    2.41245778551749    1.95417425638538
C         4.06497717831263    3.67019836855189    2.38387717214417
C         3.98119453738089    3.79966328877134    3.94124447300375
N         4.96061353654564    2.95432923743518    4.64185455337389
C         5.46178262974025    3.48516097014646    1.83695761012684
C         5.43834453398307    2.48965873002196    0.96181329221184
C         6.41447476277159    1.74407120112852    0.16478617592171
C         5.80582432412560    0.32236061977943    0.09307369291968
C         4.40145790139333    0.29604007231892    0.86913056174568
C         4.23032548699831   -1.11744608396552    1.42691856458840
C         3.94962365618165   -1.97817770609461    0.18456610456944
O         3.48924142153219   -1.05576983152506   -0.83349356534521
H         1.58910788329095   -1.18880888158790    0.49661028988641
H         0.95648399021254    0.35252914808791   -0.23920660785134
H         1.60973445198239    0.37569376992999    1.39044238329893
H         2.52959954809615    2.23487353568539   -0.63832244600562
H         4.11858055797550    1.82962038078251   -1.33677676442408
H         2.40927246774011    2.65868816230820    1.77378245888970
H         3.66704477255819    4.57950697276261    1.92595317804342
H         2.98085040918131    3.48730068463885    4.26200006208322
H         4.07192766671302    4.84583672501876    4.26465655098299
H         5.85700940648933    3.06888003326327    4.16632752112054
H         4.67578536619775    1.97300383897995    4.67888515362131
H         6.16024521349990    4.30213371503649    1.91602259330211
H         7.41723719215964    1.61931188344855    0.59049484558889
H         6.69326959037326    2.12822339804307   -0.82189503762516
H         6.49934838985122   -0.36341329003589    0.60129887014304
H         5.66322610175451   -0.14275524406093   -0.88749094710231
H         3.27068647141923   -1.19381976586204    1.94546694600010
H         5.00576705950795   -1.57204470064992    2.05878146816200
H         3.34277019041469   -2.84830218944217    0.46775539302250
H         4.87656746146851   -2.50201867172168   -0.05791453953166
