36
 energy: -47.819789224048 gnorm: 0.155908831735 xtb: 6.4.1 (79825abcba525fcdf90b791dcacef51065a7a4e7)
C         2.04214802551771   -0.46602769027552    1.10380904085830
C         3.23465097552327   -0.10414106749134    0.18842746559095
C         3.18080294876214    1.36287005278659   -0.19591934759099
C         4.22608195608112    1.71552993403280    0.94951197038510
N         3.38339606281063    2.41988412473549    1.90778047681477
C         4.16789041723887    3.60589606054087    2.36105911106959
C         4.34054711081208    3.75553479096749    3.90927470098362
N         3.20989932143224    3.34960760258715    4.75872417660805
C         5.45376243683003    3.54811613891423    1.56883444115324
C         5.40674748616084    2.51890924138443    0.73458367234034
C         6.26463321997420    1.98280297454679   -0.32400279290825
C         5.67307850486933    0.56102650542539   -0.48360754435804
C         4.75012326932765    0.29353851095878    0.80161845515989
C         4.94377222293491   -1.16564893527252    1.21589968827479
C         4.34809041448171   -2.05665625646078    0.11391909892883
O         3.59526401691115   -1.14912621824663   -0.72802818059352
H         1.09674112266441   -0.20317906792840    0.61698514270378
H         2.10389047358917    0.16945048259498    1.98846881867760
H         1.94279811650065   -1.52518076463945    1.38342332337579
H         2.25146709650136    1.85663685513708    0.10794876670060
H         3.37593506181508    1.55167829163339   -1.26128447650443
H         3.18141824407388    1.91113959569371    2.77243147498662
H         3.60625891214588    4.51230866202157    2.12049111558238
H         4.59968157021036    4.82041785539085    3.91331260992276
H         5.19653314482960    3.11787439793924    4.17001184863949
H         2.33324200072765    3.51782268543627    4.26279169446884
H         3.18115217124685    3.89069621901763    5.62584273807567
H         6.23097798154785    4.28666886511731    1.67847735478254
H         7.33956247850669    1.88109228367498   -0.13293406106112
H         6.11332538780209    2.57013340072789   -1.23558831934029
H         6.53810785782864   -0.11024768650625   -0.58690074573983
H         5.14684044097448    0.48601400306393   -1.44048823113275
H         4.53915895128145   -1.30532691820101    2.22208583679105
H         6.00161576616100   -1.43038127442509    1.35045108459893
H         3.64617461355599   -2.85567632874415    0.38680195302487
H         5.07082232768268   -2.57239208449679   -0.52177436281768
