36
 energy: -47.844111122295 gnorm: 0.153453135800 xtb: 6.4.1 (79825abcba525fcdf90b791dcacef51065a7a4e7)
C         1.82115071941048    0.08317058729254    0.52364734755699
C         3.22622600214864    0.09410072371247   -0.12179252578755
C         3.56828873027344    1.51476347821577   -0.53100414852188
C         4.22520863221880    1.77253155285879    0.89412812516651
N         3.34126501365189    2.40623373125665    1.86447759996701
C         3.98081330890940    3.70097748829801    2.24148397923029
C         3.98011169402862    3.82189418858891    3.80178915902301
N         4.69582592622043    2.69642377349528    4.42289719812958
C         5.36633253738634    3.68561191377272    1.63772436229775
C         5.42205361185791    2.58059589526112    0.90745976171558
C         6.43859654879560    1.75922645980834    0.24717504869814
C         5.85297841133645    0.33820761631305    0.06112168612190
C         4.51458542546648    0.27845110109486    0.94448766761397
C         4.30349639827189   -1.09236486194038    1.58843012775665
C         3.89090864360722   -2.03479720571873    0.44620216932933
O         3.44119945926248   -1.21842065656097   -0.66308794603742
H         1.75849369363275    0.48538837457776    1.54059182446470
H         1.48079092300101   -0.95283146237323    0.55715143356984
H         1.12080816699186    0.56900605215128   -0.17158210902564
H         2.67697220534880    2.09929248957948   -0.78336761077649
H         4.30918054663886    1.73753385104732   -1.31214474548421
H         2.43398897117366    2.62890188229777    1.44673789571560
H         3.36271969021878    4.56270759173591    1.97640243372411
H         2.94917694318933    3.68469573074884    4.14746681028729
H         4.52146717267977    4.71987228880206    4.13023444454810
H         5.68812679108303    2.72515157320623    4.18354994973107
H         4.39909688241060    1.82033584372331    3.98709942123663
H         6.12108983240316    4.39116829641186    1.94444465473986
H         7.35304938566797    1.67906475247349    0.84690444655712
H         6.71771971359376    2.30354598594988   -0.66092504673646
H         6.47706903780508   -0.49662209429728    0.41201278088015
H         5.71094502494379    0.21004510911493   -1.01664216553300
H         3.48754662290601   -0.96104154679310    2.30439978872004
H         5.17862884901397   -1.55988541533024    2.06043434728780
H         2.99023431853824   -2.59352791729092    0.73288957821076
H         4.64773443250444   -2.72545467671466    0.06852767160460
