36
 energy: -47.840277789008 gnorm: 0.142789907207 xtb: 6.4.1 (79825abcba525fcdf90b791dcacef51065a7a4e7)
C         1.81067684359494   -0.11234541182915    0.46605735001276
C         3.21636711873376    0.10879133844709   -0.13898978927483
C         3.42107274022842    1.57170034943808   -0.48646145537772
C         4.09948083554635    1.78806975446812    0.93548681067724
N         3.32601767787242    2.55254175235373    1.90597648365425
C         4.05185674165796    3.79500918045199    2.30214511658710
C         4.23084911321418    3.80693766315146    3.85681326296934
N         4.57379393011741    2.48696610054702    4.40887272107468
C         5.36731427379435    3.62322186550566    1.57793112055851
C         5.33503731709057    2.52839763474397    0.83109130303443
C         6.41143794511878    1.80843126768682    0.14772221469102
C         5.82646977775627    0.37655303208773    0.08142006873696
C         4.48021222621492    0.31385674878852    0.95254685644571
C         4.23809819971124   -1.03653996203760    1.62794777043280
C         3.92427696641127   -1.96338768243995    0.44238393110998
O         3.68615334263866   -1.12110483854434   -0.71221137881648
H         1.44749040656083    0.74168093069820    1.04796433515084
H         1.68495491380659   -0.96481020905396    1.13521004549338
H         1.09165133621401   -0.26089179739074   -0.35296406564326
H         2.50628319325046    2.12000373769370   -0.73612144346459
H         4.16969809396899    1.82937478526815   -1.24927985856338
H         2.41327694641320    2.65863901596540    1.45554878176207
H         3.66941540519201    4.75529289828478    1.94650410455920
H         3.28077345106907    4.11336447457813    4.30914252765808
H         5.02827324180160    4.52738708873534    4.08566717772009
H         5.40485376059031    2.17397998500500    3.90473717542925
H         3.93058370084476    1.69884076086372    4.30573717765741
H         6.23263062738275    4.25956889501289    1.66645104224111
H         7.35719853437176    1.86965657846843    0.69918718329489
H         6.61912673456414    2.30454231301162   -0.80599602106700
H         6.39536395583811   -0.37041639293956    0.65408961083174
H         5.76357744991739   -0.11138263448862   -0.89640270581594
H         3.36218140737406   -0.93121902050791    2.27394287462319
H         5.10982689830532   -1.33340156660223    2.22726614997975
H         3.14032256640425   -2.67693152417529    0.72848636518307
H         4.81156357218625   -2.56331669727383    0.22969003350375
