36
 energy: -47.841682978029 gnorm: 0.155284569638 xtb: 6.4.1 (79825abcba525fcdf90b791dcacef51065a7a4e7)
C         1.86315881417909   -0.01993226734519    0.50511473602089
C         3.23969521005886    0.16041824837384   -0.17574493458653
C         3.32411831355983    1.64238193034745   -0.49102276211580
C         4.12061111294309    1.81891875548145    0.87405017243507
N         3.42103471075512    2.37983331479218    2.02317183318395
C         3.93241142352587    3.75265268049958    2.30844026225328
C         4.23142904167553    3.77284419870845    3.84445926095779
N         4.70406205241481    2.50556852268857    4.42354139286525
C         5.22975396858731    3.69684483184006    1.53499787596501
C         5.34683694484824    2.58048578173351    0.82967122835893
C         6.42825872163732    1.71203160282419    0.36031263154865
C         5.82437655622805    0.31049551227671    0.09977102172617
C         4.46921196263587    0.33910521320188    0.95878934981540
C         4.28507095861828   -1.06632870345848    1.53255276864991
C         4.00835809187140   -1.89941833547890    0.27061626824598
O         3.70144807863468   -1.02444148074636   -0.84269201167090
H         1.51157437042932   -1.05735980498010    0.50880297513886
H         1.18675201753164    0.53644304272093   -0.14541421898732
H         1.75799738004710    0.39561785060404    1.51809003693957
H         2.31319303013482    2.06200731028464   -0.53287061983787
H         3.83011066935512    2.00976495136530   -1.39530668472231
H         2.41166726509628    2.33045088151574    1.86200073720696
H         3.20237295973275    4.51687248338986    2.02933694887968
H         3.26362309604891    3.98928922719087    4.31098484130288
H         4.93310564539963    4.61329406375261    3.93719919902050
H         5.66799676948783    2.31504574547927    4.14550482757763
H         4.12956525946559    1.73400190019570    4.07693459681643
H         5.94949727166924    4.44944617558300    1.81267847550964
H         7.16677464191881    1.62923137795229    1.16657784856492
H         6.93264772894852    2.02772285635162   -0.55880109495825
H         6.48814547448383   -0.45217009944593    0.53256000489182
H         5.53738124515078    0.01323290597746   -0.91385744441134
H         3.42816585337034   -1.07844349176813    2.21166930998954
H         5.10224570376872   -1.47663976739578    2.14172476701860
H         3.22145520101249   -2.64165680921104    0.45889745530490
H         4.86459416272651   -2.49912473165925   -0.04504663453861
