36
 energy: -47.845726327925 gnorm: 0.125825344658 xtb: 6.4.1 (79825abcba525fcdf90b791dcacef51065a7a4e7)
C         1.72209846134561   -0.13407614570612    0.53300050500176
C         3.10430360995759    0.10671312485213   -0.11698266177659
C         3.35744360643268    1.59446272907303   -0.27593229487212
C         4.19865139921264    1.65454409775693    1.07230722331145
N         3.50900004255739    2.15991813426872    2.25276940893109
C         3.98330787098050    3.57332876082363    2.32219354305113
C         4.07870840017208    4.07112321907400    3.80282618378223
N         4.75000204900207    3.10612230409151    4.68761078346556
C         5.31174121073744    3.58733609922272    1.60143424653160
C         5.38301591198093    2.46322846258501    0.90232512720733
C         6.36012069011942    1.81762654887537    0.02343513055124
C         5.84160922553165    0.36149346694621   -0.06420803584251
C         4.50670598367523    0.18676110123269    0.80912124684586
C         4.46171799114039   -1.22185287253291    1.40253478122457
C         3.94724247990688   -1.99557659042689    0.17788845189705
O         3.55916950880697   -1.04485521207129   -0.84424745320705
H         1.26805638759841   -0.93697336717425   -0.05783193204551
H         1.08712736084367    0.73263871995036    0.34356817396506
H         1.82807028400505   -0.38367917923446    1.59898741343963
H         2.47165174759921    2.23635344442106   -0.33210809528487
H         4.03115813034199    1.89600334888675   -1.09073898648958
H         2.48641910851521    2.14752111339898    2.21519365035029
H         3.31480289929145    4.24724821379196    1.78014152562399
H         3.10838739551420    4.24270339027880    4.28259728687928
H         4.61809832164111    5.02838612314775    3.80642820510853
H         5.49741852802458    2.72237395488598    4.10719781900311
H         4.08382396991667    2.34127301506464    4.81687880211434
H         6.05445722743426    4.32593966942815    1.85517309240623
H         7.34605225521834    1.94463043405813    0.48618150500384
H         6.52565917722954    2.20737766906255   -0.98628282716912
H         6.68068120189457   -0.28582681422964    0.22988207267708
H         5.69101377136187    0.11315419633906   -1.11958600267866
H         3.71077539705781   -1.32500806124185    2.19061893495571
H         5.40214313335904   -1.54240733870100    1.87164632693361
H         3.19224095887206   -2.74151251053903    0.45920006610238
H         4.74102653026507   -2.59625494032904   -0.27102516852923
