36
 energy: -47.814451006679 gnorm: 0.132726614864 xtb: 6.4.1 (79825abcba525fcdf90b791dcacef51065a7a4e7)
C         1.85845164813746   -0.53266613204702    0.81371408606139
C         3.15807609715515   -0.16701452335666    0.05990783176423
C         3.08048926336193    1.33092212770991   -0.17011350340037
C         4.13865658347765    1.64410411506065    0.97495816537652
N         3.52766485410526    2.13053652881507    2.20564315328002
C         4.00017759765638    3.53710909352215    2.36627495888233
C         4.53051833210332    3.87937401783045    3.79832490182164
N         3.49597326165229    3.61030787926292    4.80927773456677
C         5.12331549830101    3.67703687002754    1.36457300802068
C         5.20661326765707    2.56146166764949    0.65323266342424
C         6.35462331104650    1.91049659558182    0.01896093258812
C         5.60880058016662    0.67357595718441   -0.53838527494887
C         4.66447660902525    0.24458986957199    0.68612494700843
C         4.85414885279988   -1.13936728572744    1.30825350376887
C         4.52901331256149   -1.92826193586209    0.02957286016635
O         3.57530408580004   -1.23113359797377   -0.80928611098088
H         1.49180544267080   -1.50569737708233    0.46924074649232
H         1.05706859717114    0.17432764076556    0.59414045427525
H         2.01792939384885   -0.56661102672403    1.90149824971323
H         2.04694122901252    1.69192137037267   -0.13455155054548
H         3.45914493583956    1.53863582265954   -1.18115399136907
H         3.82615992551358    1.50024973131807    2.95456013141862
H         3.15696824816899    4.17552875589939    2.09004126673240
H         4.87154274309318    4.91932742725192    3.85613648614639
H         5.39100332727130    3.21587415089365    3.96154325384035
H         2.82924744445637    4.37950393735228    4.72811427304793
H         3.83233869865312    3.66038250185594    5.77356436988445
H         5.91957227234474    4.39735091929392    1.45767802964892
H         6.98275624374454    1.58152205895394    0.85535199486244
H         6.93573450716014    2.58422901728224   -0.61918770568130
H         6.30935138613786   -0.16745181186606   -0.64541414516441
H         5.03512175637772    0.79727306935065   -1.46237968498354
H         4.18274647432413   -1.37804083122749    2.13764255744350
H         5.84426823148266   -1.37626824841912    1.72148687727854
H         4.13305550243603   -2.93982436860676    0.18939393497787
H         5.52325008149141   -2.10355756502892   -0.38659504731354
