36
 energy: -47.834445456283 gnorm: 0.136301292098 xtb: 6.4.1 (79825abcba525fcdf90b791dcacef51065a7a4e7)
C         2.04230781346754   -0.42086961221190    0.65543521830183
C         3.28413735775621   -0.12500968270253   -0.21707548742503
C         3.23665115798639    1.37972703791325   -0.40748605196313
C         3.98916160528993    1.52816099474300    0.98559884760578
N         3.18292726238430    1.97131321643335    2.11613642209066
C         3.68333237683398    3.22346662900462    2.75584246150243
C         4.20744762828405    3.30914649536149    4.22796194869984
N         4.53289446685944    4.71177408459543    4.53032914780918
C         4.88723839696414    3.48243508949273    1.87950294637252
C         5.05611709789927    2.50121980290837    1.00420404333824
C         6.07171051011880    2.09060002065819    0.03263592280648
C         5.90881141601784    0.55673960691960   -0.10001069073580
C         4.61864735774556    0.15896363403866    0.76742983915130
C         4.79559284274796   -1.31065236957196    1.15119537655554
C         4.61524266366704   -1.98461280368981   -0.21860140508755
O         3.62303504100951   -1.27795591030663   -1.00307170240953
H         1.24457587415310    0.00739224998361    0.03891543081804
H         2.12504856815514    0.05745765237643    1.63248412059450
H         1.82628445555848   -1.49710093889895    0.72557669906735
H         2.21563387159784    1.76781721650043   -0.32553275805375
H         3.70878725081233    1.88206956684434   -1.26391319717584
H         2.19605016513298    2.02823658867419    1.85142767395518
H         2.95309470038663    4.03660160346402    2.73460152726625
H         5.09326730771875    2.68234887966760    4.38155611477410
H         3.49335574676187    2.90980192301511    4.96138095131916
H         3.72198444090248    5.13908127131075    4.98044790711540
H         4.93110717862049    5.31687079858403    3.80867653453292
H         5.66240040041037    4.15065785087201    2.21736079029319
H         7.09252647004713    2.32416536602404    0.35776243867239
H         5.79543747293606    2.58162424745560   -0.90619722710532
H         6.79018454883506    0.06020781035479    0.33148889325283
H         5.84017301465324    0.21160398496831   -1.13651645926430
H         4.03805843660091   -1.63354215374628    1.87058138056292
H         5.80024222583012   -1.58812767993620    1.49891268845284
H         4.29150919115869   -3.02733910101201   -0.10240147234419
H         5.54636218299435   -2.03366737628603   -0.78696847738217
