36
 energy: -47.835849123868 gnorm: 0.143776149752 xtb: 6.4.1 (79825abcba525fcdf90b791dcacef51065a7a4e7)
C         1.86474667529798   -0.15653317050992    0.64256562556964
C         3.18478423753178    0.05026102652858   -0.13569246437445
C         3.34990606214321    1.53003016209689   -0.42854365961360
C         4.16848219313773    1.74065312168314    0.91851285051263
N         3.46529708178455    2.38794061167986    2.01899570376706
C         3.99600415030501    3.73289144146863    2.38909640107479
C         4.47512844183516    3.87598847951163    3.87204507434893
N         4.13802863642023    2.74175912626573    4.74645528605727
C         5.23151380033109    3.69594373102339    1.51928257272171
C         5.35293866044561    2.56325689067373    0.84125000134966
C         6.29894625885334    1.85453045305403   -0.02290257518124
C         5.85744805038308    0.37065297976150   -0.01612082479749
C         4.52086335023423    0.26027256370198    0.86510536734503
C         4.48986114410809   -1.12225357916451    1.51780530837562
C         4.05788712218229   -1.95762253027550    0.30180808959458
O         3.51664054008632   -1.18129874776819   -0.79528219912988
H         1.51940086493853   -1.16457818791460    0.38867069543011
H         1.07592880780323    0.51120283563357    0.29304801067905
H         2.00660564287099   -0.12542924194399    1.73287217378124
H         2.51098817626548    2.20752595996045   -0.62095691916409
H         4.02379582325978    1.62688214524256   -1.29180505725838
H         2.45717269162681    2.43371915631399    1.84921073980973
H         3.33763926127014    4.56602535720203    2.12961560893838
H         4.04101250340424    4.74131348476187    4.38575599545626
H         5.56094231678757    4.04357143631531    3.88724093220270
H         4.70813036776425    1.97348096822847    4.38937534218071
H         3.21862047826771    2.43553230339024    4.42024728400601
H         5.93307048072384    4.51245482514372    1.57098927126945
H         7.34611537393920    1.97499831908872    0.27917289255566
H         6.21116783679411    2.25867697060759   -1.03670719890949
H         6.76843513368133   -0.15163826340132    0.31078698040919
H         5.66463974985361    0.04632443248128   -1.04364697394274
H         3.78347257159119   -1.02928282554498    2.34726538987372
H         5.39836491693614   -1.54987192649503    1.96388120892264
H         3.24972131107826   -2.68039309777488    0.47517084968711
H         5.01279670639963   -2.35327851189880   -0.05037803386335
