36
 energy: -47.842712880665 gnorm: 0.151314985967 xtb: 6.4.1 (79825abcba525fcdf90b791dcacef51065a7a4e7)
C         1.81244297463932   -0.22712133791458    0.57465705394944
C         3.16838717809042    0.14561259867691   -0.06833080008983
C         3.43586333641141    1.59163435705999   -0.44279214519774
C         4.14914851259409    1.75734767124724    0.96885706744911
N         3.40990537834426    2.35469621345651    2.07393950706391
C         4.04841662345150    3.68259177945303    2.31166622516343
C         4.13876244932025    3.88536275523570    3.86082572909398
N         4.66129821698241    2.74963961436780    4.63658022553638
C         5.33122824338153    3.70366929428512    1.51268224215310
C         5.37036068536927    2.52563414222755    0.90592573014847
C         6.35020577876793    1.82238680102880    0.07566674968466
C         5.85834909791075    0.35456927163421    0.05450741691529
C         4.51575872415799    0.27996315860520    0.93034250557733
C         4.39918840911599   -1.13688982678388    1.49363271171203
C         3.98791587975864   -1.90641704080900    0.22802027325443
O         3.39917616245443   -1.06953404971524   -0.79777014477135
H         1.94012782400282   -1.12216710913019    1.19309926357228
H         1.11750822516247   -0.25152179211259   -0.26601997877969
H         1.54324215717000    0.62344027915694    1.21803535818701
H         2.50896710824907    2.14370369413525   -0.63223729095640
H         4.11120318144351    1.75803387513704   -1.29423518605762
H         2.39129944235049    2.43170713147448    2.01271318042367
H         3.38074077392329    4.50041265083470    2.02835596711227
H         3.12714356561609    4.07036159513156    4.23969982623204
H         4.73742070354899    4.78919898740023    4.03969744511177
H         5.63687534354596    2.52837667962631    4.43148175324703
H         4.03816242109563    1.99295843831473    4.34566225377684
H         5.94816433264433    4.58708726814624    1.53522717627389
H         7.39856623540277    1.86117420992953    0.39466696771085
H         6.35220310802173    2.16437827255881   -0.96446647224019
H         6.51445441246304   -0.39491902460631    0.52071276463458
H         5.65954567502081    0.00377363311567   -0.96313380153252
H         3.66559958283363   -1.22076679652727    2.30013410525083
H         5.34599483390975   -1.62704689326966    1.75919607531125
H         3.22711952654321   -2.65778315290163    0.47746323216770
H         4.86337089358314   -2.38231603403190   -0.21866720494934
