36
 energy: -47.840745742276 gnorm: 0.128068034849 xtb: 6.4.1 (79825abcba525fcdf90b791dcacef51065a7a4e7)
C         1.75861560179725    0.04258822762907    0.26059868828364
C         3.22537261359212    0.11024763754411   -0.22416386116718
C         3.48082984333364    1.59250945397344   -0.42512464680859
C         4.17568130331614    1.71612728837466    0.99996840924324
N         3.42257410435214    2.27556978455719    2.11548019146633
C         3.96181904149350    3.63900422259344    2.39436847077419
C         4.22130484955942    3.92364432701763    3.91121412420196
N         4.85834398756195    2.78068493343063    4.58391813172493
C         5.23905259223908    3.64820669802802    1.58627497204169
C         5.38779086633486    2.49909216296019    0.94217532734820
C         6.46779591036608    1.75356129343193    0.29274784470393
C         5.87288687373516    0.33456802186929    0.12128251877944
C         4.47312539128841    0.22623091572393    0.89854243208250
C         4.14670812050315   -1.13563234851387    1.51265731492748
C         3.89122361580111   -1.95787651448874    0.23918400264987
O         3.56871481520863   -1.11318097215068   -0.89294279833123
H         1.38401551434335   -0.91271323248265    0.64394581221832
H         1.10009387941034    0.27843683389633   -0.57665404520026
H         1.63284596087688    0.78503070386571    1.06235984700294
H         2.53096083345130    2.13657048335877   -0.46453387983356
H         4.25603148669852    1.81398522541119   -1.17261300656772
H         2.39954119194882    2.28773660288701    2.09327595130174
H         3.18233866405268    4.34167939634540    2.08851773942478
H         3.25614233027253    4.09484986746942    4.40141091446199
H         4.82495958662840    4.84105936137075    3.94667318125314
H         5.61035708907742    2.45836170669942    3.97288831946717
H         4.29639185789020    1.92943691540176    4.65522385532603
H         5.94655570675010    4.46116549227579    1.59538907545466
H         7.45821527632962    1.74193559090976    0.76313022093386
H         6.75742423893798    2.08015810637191   -0.71138822126110
H         6.61310663901074   -0.44568349624785    0.35114464409363
H         5.74552225729657    0.19917580880976   -0.95743024997760
H         3.21399449165121   -0.90969776756352    2.03671002785145
H         4.82598109722316   -1.56908991048729    2.25959976806524
H         3.07224960143242   -2.68531375111462    0.31468598226167
H         4.78067197488506   -2.52760464039065   -0.03780429532191
