36
 energy: -47.849704142017 gnorm: 0.132889899136 xtb: 6.4.1 (79825abcba525fcdf90b791dcacef51065a7a4e7)
C         1.93641207476337    0.13679868606414    0.76691022637259
C         3.20260658637308    0.10994777139801   -0.12020822323279
C         3.51365966708922    1.49502383893332   -0.65644883700643
C         4.13491828250411    1.84375116465540    0.76531666868042
N         3.25124105113053    2.55439853727421    1.68107197765676
C         3.96679029661445    3.74425262113691    2.22856973394555
C         4.01817202721705    3.57206262079168    3.78320285363360
N         4.44268343819825    2.23664331606619    4.23170153240018
C         5.33604435948370    3.65469035761463    1.59489217994676
C         5.37044563343332    2.59038386260399    0.80525943075700
C         6.46636072195768    1.82335793172630    0.20975581691841
C         5.91029374012489    0.39030454062180    0.02534728654854
C         4.54132966212081    0.37954027185892    0.86261879554558
C         4.50619362538777   -0.91627863024584    1.67377582615631
C         3.89078879007561   -1.91860398704750    0.68397137090569
O         3.57252617208868   -1.21236029216458   -0.54043147625607
H         2.18224827385046    0.59641502862806    1.73034081657705
H         1.45268195747413   -0.82768359441066    0.92830003167090
H         1.07234879900274    0.68463624216444    0.36301858575508
H         2.64711424052743    2.06335987625949   -1.01127247233333
H         4.21706224928699    1.52910380418548   -1.50071853837221
H         2.29369720545032    2.72466533119139    1.36270676372240
H         3.45446661027825    4.67415176904050    1.96837990474429
H         3.03346217509644    3.81573882995221    4.19806588402453
H         4.74298246301302    4.30035821260804    4.17248693467806
H         5.28743433884212    1.91886244069220    3.75401478247405
H         3.66302866150672    1.60926155955382    4.02187195796259
H         6.14393259421523    4.31855070746137    1.85595110724512
H         7.35878127670255    1.91062832499000    0.84086173376981
H         6.62827456489281    2.26729417644966   -0.77794038633768
H         6.58287619992617   -0.39433803502879    0.40154296030672
H         5.57817955191322    0.15411530859786   -0.99057044789104
H         3.92183345974458   -0.84194529091318    2.59498707606703
H         5.50529432654730   -1.22853887451147    2.00770934281257
H         3.01297619632844   -2.49142559004947    1.01093373197241
H         4.67219443346066   -2.59859469709905    0.33835757767552
