36
 energy: -47.838634397908 gnorm: 0.151484411279 xtb: 6.4.1 (79825abcba525fcdf90b791dcacef51065a7a4e7)
C         1.77901737063194   -0.05450112778973    0.55635437178178
C         3.14602870984467    0.11069531260177   -0.14716449178027
C         3.42607966524473    1.53661755600171   -0.58426968216050
C         4.13046355717336    1.84941918671957    0.80676900565542
N         3.26645502292335    2.56977178544513    1.73364239950625
C         4.02848422647786    3.70927173681875    2.32386998584265
C         4.05880134418657    3.75082872469259    3.88800792854505
N         4.73334365183883    2.66074144968068    4.61009388730564
C         5.42460020792409    3.43809719696126    1.81225503316267
C         5.42063956468788    2.49395181654326    0.88165015337410
C         6.40351925761539    1.76351600816196    0.07890845027267
C         5.76813577340154    0.35730392446465   -0.04644867575393
C         4.45619702591346    0.36367913900949    0.87766070998982
C         4.37141978757526   -1.00768867793694    1.54886857963227
C         3.98609403851279   -1.96147658111713    0.40654428816177
O         3.59372215228465   -1.13051980671395   -0.71362923523478
H         1.49689899057322   -1.09978929222735    0.72267633379403
H         0.97510673416406    0.46242708507026    0.03025506967853
H         1.84560314481154    0.45336333242922    1.52975039257305
H         2.52222237966780    1.98952908151160   -1.00583794655946
H         4.18576614962394    1.65015041061402   -1.37085387614726
H         2.40106006501493    2.95826273365541    1.34971044379657
H         3.64996617721060    4.71393272348470    2.11828030490088
H         3.08424599575176    3.77590401514253    4.38876338395379
H         4.67723407012411    4.59685049012517    4.21830305121110
H         5.66479074045927    2.47691461532761    4.23407870680428
H         4.27119214322074    1.78342938387797    4.36061961629338
H         6.22387344656992    4.10872288320507    2.08238315224861
H         7.29593129597739    1.73492854854327    0.71538998739428
H         6.67545408273943    2.30800665634773   -0.83126772057272
H         6.42704144170670   -0.40832101597851    0.38854107546742
H         5.40630085853736    0.10830314608195   -1.04906930911856
H         3.51970753577510   -0.96579156567143    2.23331234886988
H         5.21055064629213   -1.40911707462292    2.13362058725812
H         3.17503907339398   -2.60193241895080    0.77747565811862
H         4.77169534102352   -2.64935277984713    0.08703220640303
