36
 energy: -47.842721157878 gnorm: 0.137899451987 xtb: 6.4.1 (79825abcba525fcdf90b791dcacef51065a7a4e7)
C         1.79821759905552    0.11404709328802    0.59437221104267
C         3.17591598333354    0.12551591651659   -0.10759943831222
C         3.48353792187502    1.54480596306869   -0.54774501823640
C         4.14575144702731    1.78393716367558    0.87818611739607
N         3.40018999951618    2.32744091200293    2.00657197549424
C         3.94738367844957    3.69275697633944    2.25957070031217
C         4.11414069805624    3.89067752615997    3.80300621152404
N         4.54076192207805    2.60041259103663    4.36684701535534
C         5.26652597715019    3.63947147691300    1.52373810932404
C         5.39041761142843    2.51491250947892    0.83274632408246
C         6.46613225948423    1.69591855392079    0.27054518395301
C         5.89351788773171    0.27468073177822    0.04906190426464
C         4.52316506681640    0.30878201396389    0.88343128827725
C         4.32313448243901   -1.01246737512318    1.62683197930629
C         4.07539682233405   -1.89207095894356    0.39070269403898
O         3.45060352168938   -1.15762602130575   -0.69071189344345
H         1.93886719256887    0.57022044977160    1.58027517734265
H         1.48376412954708   -0.92915588868770    0.65017629941776
H         1.07948286853663    0.63527871084971   -0.05493338237899
H         2.55860179965819    2.10383984815022   -0.72601695903713
H         4.25344015057710    1.71538552817528   -1.31382666553728
H         2.41012906387050    2.34453865671534    1.74826133223955
H         3.27046477127068    4.45325943743256    1.86169692882325
H         3.16861557260234    4.26338804866099    4.21314281035630
H         4.95347863678158    4.57119220168208    4.00230081437022
H         5.52512820088030    2.50175082389830    4.11374173188967
H         3.98655730921761    1.85022625492302    3.94782959464057
H         6.01244820041281    4.33127662652063    1.87947876835270
H         7.29236454994679    1.60235770228504    0.98532614474345
H         6.66457064340627    2.07741596640245   -0.73639136128431
H         6.49528240542784   -0.53215499256489    0.49228857832976
H         5.69481145331588    0.04734896790811   -1.00308354312689
H         3.49318862372082   -0.98615976296354    2.33826022190953
H         5.10577532000169   -1.47430729517287    2.24440579453178
H         3.29093291303514   -2.63791106039563    0.57488417172774
H         4.96847439368962   -2.34778138295437   -0.04193049814489
