36
 energy: -47.840439027153 gnorm: 0.132747506450 xtb: 6.4.1 (79825abcba525fcdf90b791dcacef51065a7a4e7)
C         1.82258728767614    0.13862164700528    0.56585496604519
C         3.12901823269485    0.16158588847025   -0.26098207618420
C         3.41628352404022    1.62080016333845   -0.56250503584706
C         4.14816578886862    1.75076899604075    0.84335649180623
N         3.52475063509066    2.14894145905759    2.09927254528691
C         4.04547278843639    3.50990409526847    2.42198974425749
C         3.89791260997399    3.82285249213121    3.94824756605691
N         4.74756271282772    3.10283113801240    4.90968903064564
C         5.42428328097436    3.39335264310891    1.81394144073046
C         5.42426989816330    2.42359437029917    0.91004954558547
C         6.41257188313443    1.72620598763280    0.08488781869575
C         5.91228086023077    0.27600645427446   -0.12365290767386
C         4.52104104533228    0.28395688678462    0.67609122464804
C         4.30979307916241   -1.06238254726660    1.36970587495697
C         3.88696281018508   -1.91800006352096    0.16462276348798
O         3.30935965100814   -1.11470129563982   -0.89382858645783
H         1.13326474701461    0.97105071197714    0.38759276964927
H         1.98600498913714    0.11028655753844    1.64416815999835
H         1.35539408398862   -0.81176690265018    0.26861448336611
H         2.57487908625934    2.30105884348410   -0.73307275200788
H         4.11837297319008    1.78921248171201   -1.39162243685194
H         2.50179329413926    2.16951893722340    2.11856615984255
H         3.42403266766491    4.22028007892292    1.87056896699596
H         2.86143112399869    3.55439028508203    4.18229264173247
H         4.00719845150759    4.86325928762304    4.28427888969348
H         5.75009404622549    3.19871763999840    4.74083966681420
H         4.60857120678809    2.10192404778509    5.06577956038635
H         6.27485857013129    3.98709123377787    2.10641692272257
H         7.42743212467571    1.75096186432199    0.49934058679110
H         6.51709676215677    2.18850075129863   -0.90212656209973
H         6.65529917971587   -0.38983446176855    0.33909321676709
H         5.91994232516124    0.11336341892328   -1.20608654912786
H         3.54391866034169   -1.06322570577513    2.15013400879895
H         5.23842827595500   -1.50084748293546    1.76035331375799
H         3.16029520782779   -2.72088634074129    0.34603869500218
H         4.75116559985598   -2.31641072453136   -0.37096431778732
