36
 energy: -47.840050838502 gnorm: 0.139151797442 xtb: 6.4.1 (79825abcba525fcdf90b791dcacef51065a7a4e7)
C         1.82488113966493   -0.12576883230671    0.46415972159425
C         3.19596259171436    0.13729013299474   -0.20058403382365
C         3.37508462923871    1.62297890046371   -0.45235339064741
C         4.03333993353862    1.70771996891037    0.99281401742061
N         3.25679481886106    2.45082148867778    1.97733962447624
C         3.93874647636636    3.74617199302400    2.26807341134366
C         4.13914028542825    3.99285252067107    3.80044562243297
N         5.04325732996279    2.99247594143408    4.38910916285201
C         5.33010725328817    3.49748868091873    1.73263244361282
C         5.30980951818191    2.38277532296359    1.01537823654335
C         6.40499123500250    1.67811603687460    0.34603875727348
C         5.87432023693119    0.22408862382247    0.31361182327278
C         4.40707637088982    0.23191105684861    0.96348586265275
C         4.18400809429555   -1.18136604243441    1.50315727835366
C         4.03053646782637   -1.92596941730349    0.16707932528938
O         3.60790565677825   -1.04539732836934   -0.90306531452227
H         1.56396888398077    0.55802359075577    1.27916513212886
H         1.56740421450786   -1.10317013595234    0.87484191819109
H         0.94689867806953   -0.00090359411841   -0.18654392748706
H         2.54701362983851    2.27326813270277   -0.75439470083884
H         4.13854150392856    1.77468255786608   -1.22878596332988
H         2.28021136238977    2.45102161456190    1.67152586877011
H         3.42606949325168    4.59501334909070    1.80816325717595
H         3.12943050241585    3.81196466607016    4.18633244754008
H         4.43424067865211    5.03409042212320    3.99030373889719
H         6.01474291809354    2.93157265345807    4.08043467809285
H         4.62361576091471    2.12060028354743    4.05860700392426
H         6.16966617989941    4.16646356038116    1.82833544632283
H         7.36782927024772    1.79036614674554    0.85855025195024
H         6.50525536389430    2.11153377106184   -0.65442883579635
H         6.43962572225704   -0.47141663991643    0.95099429942275
H         5.76257055430446   -0.20668857704963   -0.68644667958544
H         3.25359896009877   -1.20565352489319    2.07707478667822
H         5.07531522060547   -1.55417912063070    2.02641839854119
H         3.23323884899225   -2.67669651925590    0.24650999426726
H         4.94769257772544   -2.41380432943430   -0.16948091553319
