36
 energy: -47.827727278098 gnorm: 0.143393714951 xtb: 6.4.1 (79825abcba525fcdf90b791dcacef51065a7a4e7)
C         2.27303308680872   -0.50254357978515    1.23745810131856
C         3.16327178855393   -0.05210092960171    0.05613463677077
C         3.21792166159821    1.44034742628290   -0.21285425581027
C         4.23301718589007    1.66889255057436    0.98978381633452
N         3.72831015354375    2.19744579335819    2.25090045326100
C         4.14262525506956    3.62794558107142    2.34852516279251
C         4.36440201389185    3.86788504720457    3.87902106857949
N         3.22764876467070    3.40007751019924    4.68750970412492
C         5.38987812238419    3.64354884036150    1.49497836876788
C         5.30657383701179    2.58904835444961    0.69589093013087
C         6.11122561358348    2.02405449093858   -0.38914392691710
C         5.80675057766019    0.50702126386010   -0.33656879794373
C         4.66667259756062    0.22783622270708    0.75772549371904
C         4.91696724286664   -1.20612970195907    1.22618168194265
C         4.27357226573077   -2.01369616149953    0.08733516092393
O         3.41817141447379   -1.20654789631958   -0.75885314161718
H         1.25497367371238   -0.10532265794941    1.31263584284725
H         2.65587721380882   -0.12568615346270    2.18702453828062
H         2.24689996547700   -1.60191492656537    1.26111164952954
H         2.21158897886829    1.84781476202035   -0.06769389210169
H         3.61743506105198    1.78160653739475   -1.17859708946446
H         2.71598546231883    2.14789900817281    2.39225542609193
H         3.47737335475853    4.41229153879909    1.97821711737716
H         4.63011487255366    4.91479775012934    4.06479885491857
H         5.17210794924582    3.19145301880580    4.19104279983290
H         2.70222915023361    2.78333416815294    4.06595095650329
H         2.59368197375551    4.13400049955310    5.01145575385675
H         6.13025600357081    4.41753142511142    1.37524005948820
H         7.17832793930547    2.26620947293063   -0.31858306223716
H         5.69136841902479    2.39382916134022   -1.33032716777604
H         6.78981402229024    0.05569043372780   -0.13797105962421
H         5.40068773373895    0.30316386684435   -1.33242478909568
H         4.38291011918102   -1.46897583868217    2.14342064132111
H         5.99334396982966   -1.36231112622785    1.38187611711714
H         3.63989800213020   -2.81974440813850    0.48018000224980
H         4.94894367788077   -2.57606429231471   -0.56077484744379
