36
 energy: -47.842024125499 gnorm: 0.137483492083 xtb: 6.4.1 (79825abcba525fcdf90b791dcacef51065a7a4e7)
C         1.87545033261286    0.11355921631108    0.84633292954400
C         3.17697934435434    0.12777543752112    0.01160615703175
C         3.47291432314912    1.49561416395792   -0.57506532444943
C         4.21014762425581    1.82881887117564    0.79404088535200
N         3.24762687733924    2.52810246963588    1.63610333011338
C         3.92963164033577    3.71897605566135    2.22279476991057
C         3.98286663261750    3.53456708663723    3.77596345967116
N         4.54683465948257    2.22499839957071    4.13883483993799
C         5.29950894744741    3.64394658123916    1.58857708576849
C         5.43053758891212    2.60086837894360    0.78094412618138
C         6.55551957118552    1.83060579427512    0.24700188932944
C         5.98651569146978    0.40662035933077    0.03402516432472
C         4.61121177137072    0.36137503225622    0.85967284605850
C         4.36124896932880   -0.89695077594774    1.69183366915421
C         3.92827733243985   -1.88113079499099    0.59319026403418
O         3.38740317124321   -1.17634562311086   -0.55134745152083
H         1.86815839888006    0.94459715402374    1.55991816976215
H         1.76817440553101   -0.80634960986418    1.42298463598391
H         1.01500282842046    0.08460210714632    0.16175176837778
H         2.60984070970758    2.12759899039225   -0.81066189501257
H         4.10372015517526    1.61662036113528   -1.46734860841944
H         2.47645522436786    2.83664044943685    1.03832746579621
H         3.46046019313008    4.67123279987642    1.96208041544114
H         3.01647976348193    3.61599446558943    4.28646216065112
H         4.57076275406882    4.34033814719776    4.23685160319346
H         5.48377088904992    2.18467912525758    3.73473304983643
H         3.90934781222942    1.53559117142224    3.73408049177179
H         6.02124458790107    4.41909408513501    1.78805073522416
H         7.36078552854335    1.81931696795261    0.99114202970682
H         6.87526024672963    2.15553618074856   -0.74850071003049
H         6.51933550673401   -0.40387947413659    0.55243367287019
H         5.75804991789493    0.08404825460906   -0.98672194720162
H         3.65438725927563   -0.67956181785251    2.49726583281076
H         5.27056463712414   -1.30166844048352    2.15720329317809
H         3.20107695152786   -2.67813142713711    0.79703706743197
H         4.81595330221729   -2.33106807035834    0.14372518438424
