36
 energy: -47.847467652121 gnorm: 0.135968898720 xtb: 6.4.1 (79825abcba525fcdf90b791dcacef51065a7a4e7)
C         1.77003598577943   -0.07637046681867    0.43509889352778
C         3.17573645537520    0.09068411825052   -0.18703261530505
C         3.43388380392141    1.52690651594580   -0.60340853234227
C         4.11110046125633    1.86712263985227    0.79466898473149
N         3.37550228550077    2.52283754563495    1.86865509882735
C         4.06135706841246    3.78156615722953    2.28425434828575
C         4.20821414986009    3.79897890573766    3.84223489839012
N         4.60848266306518    2.51930125761634    4.44797077422142
C         5.39812541395251    3.57239632778323    1.61066419645029
C         5.38293387986706    2.55064906911945    0.76612089757999
C         6.38789167140571    1.75071063978702    0.06316887396702
C         5.86571254517842    0.30739228020838    0.26570301825611
C         4.40461585747139    0.37873825960712    0.92548199636685
C         4.28457419632591   -0.92795985133573    1.71064879766951
C         4.08884260292364   -1.87246561872802    0.51369847641126
O         3.62466569358530   -1.18360698921172   -0.67341868900946
H         1.78497383562259    0.26627273014477    1.47541308733038
H         1.44728871041561   -1.11145175185225    0.31382031451745
H         1.01239828417269    0.46757933376833   -0.14796501145002
H         2.50215691117106    2.09155771489799   -0.71681335184563
H         4.03899005139023    1.66109608549229   -1.51146555514782
H         2.39946264771470    2.77004078894481    1.68569451770492
H         3.43743180186017    4.64290189511586    2.03185637673747
H         3.22837093786914    4.03620264324536    4.27208963609006
H         4.96753298391189    4.53800012008355    4.13307726716239
H         5.30069711500486    2.08871423284601    3.83298511176340
H         3.74409832974542    1.97309872046066    4.44860412804666
H         6.21254221472526    4.17812403590968    1.97310721250825
H         7.41130166266296    1.90992022255406    0.42318213344628
H         6.30616778684199    2.01540084497680   -0.99612313949259
H         6.44573329396990   -0.26030112637679    1.00789870690920
H         5.81193443343127   -0.22482040714755   -0.68930043711687
H         3.47655172753193   -1.03511391740975    2.43951785836029
H         5.21573336112053   -1.30355222855764    2.15684743933869
H         3.27053215270049   -2.55281415211779    0.78402752593042
H         4.87629057720896   -2.48944201500073    0.07586648331448
