36
 energy: -47.837830483180 gnorm: 0.145301675094 xtb: 6.4.1 (79825abcba525fcdf90b791dcacef51065a7a4e7)
C         1.81949773560933    0.15831791139678    0.51854415411270
C         3.19219407193747    0.24548207891849   -0.18789467552842
C         3.40588420322723    1.68993990024670   -0.60095865145568
C         4.04058805283156    1.93387281955961    0.83662192132838
N         3.22413003369396    2.60387768277276    1.84111317276239
C         4.07670045991185    3.64185066723396    2.49169213536676
C         4.23868119849707    3.24285669409169    3.99626504963699
N         4.71346205036841    1.90950094475882    4.39807509449419
C         5.40930229935622    3.54845542334116    1.78467376172738
C         5.30738972358787    2.62726816611575    0.83679218618159
C         6.27599444294010    1.92072377978030   -0.00379280157954
C         5.87214200722637    0.43956463857189    0.19603165005046
C         4.43977632667722    0.46676622888095    0.91907432555698
C         4.37393073752056   -0.93328924698963    1.53052005652394
C         3.92260577645465   -1.79296983463656    0.33873687779858
O         3.55448992226459   -0.99525706305747   -0.81338231334394
H         1.86414134063731    0.66765130663422    1.48728950758957
H         1.61702655101361   -0.91083763307048    0.59715332609454
H         1.15773809720803    0.76397221757839   -0.11794373110289
H         2.43310835649368    2.18964550733621   -0.66266831024366
H         4.01026759100125    1.98716169554242   -1.46992808908376
H         2.47079441819109    3.17906807406797    1.45526494422191
H         3.54003878175721    4.59177459113335    2.42442025754280
H         3.25217582422577    3.24034481537513    4.47369960546775
H         4.80048176846694    4.05965411416865    4.47010977665662
H         5.72814207664240    1.79535536930774    4.41106095755822
H         4.32487119376261    1.21758369876767    3.75329175032217
H         6.30216868178064    3.93078561065142    2.25174866448995
H         7.31066722963098    2.07820071896655    0.32328284896741
H         6.09761454046949    2.17280686330993   -1.05425650897174
H         6.61471635010928   -0.18768187819202    0.71052117461684
H         5.78039249262528   -0.15033295312027   -0.72145234822998
H         3.54604787996171   -0.94893917306971    2.24466112014452
H         5.32978355159914   -1.30057511799546    1.92885000225553
H         3.07204894058535   -2.43160726906742    0.61127900780860
H         4.67665206873897   -2.50709477393752    0.00128940196019
