36
 energy: -47.842616274839 gnorm: 0.126598133769 xtb: 6.4.1 (79825abcba525fcdf90b791dcacef51065a7a4e7)
C         1.74514157762935   -0.08814049206044    0.59730633236381
C         3.08656083031325    0.17105142875197   -0.12682246062363
C         3.31477518601254    1.66104844255312   -0.30166738619579
C         4.21343496182678    1.72045888388598    1.00900835846808
N         3.61327596832915    2.15482529006413    2.26425638614088
C         4.04956340326608    3.57687883021322    2.38646165173311
C         4.11858894868788    3.97900015294815    3.89732479253776
N         4.58104434039061    2.82271576369947    4.68080875069425
C         5.33061092484329    3.60376112757126    1.58482597312541
C         5.43877705265825    2.47631949634725    0.89589431227477
C         6.51859337404319    1.73094752543659    0.24597103086645
C         5.90553254700147    0.34057129316992   -0.05045640856161
C         4.51889267549160    0.25098828593486    0.75229301209932
C         4.29181398002085   -1.14273457057467    1.33908806068843
C         3.97292412690827   -1.83141818364556    0.00225743007640
O         3.36507557750837   -0.95267291593380   -0.97629274119845
H         1.01272655533474    0.30939813117002   -0.11361727992554
H         1.73057083368034    0.43965952600437    1.55202219559449
H         1.52599141620739   -1.15716064706125    0.73525155088033
H         2.39268066045886    2.23221206191910   -0.45437743040251
H         4.05354351431284    1.80777706294353   -1.10255437493433
H         2.59414068625508    2.06892082189746    2.22931322177270
H         3.32360049938382    4.32872704307192    2.06616680469992
H         3.10609428521599    4.27273993822979    4.19684840458542
H         4.86892141886490    4.78094122902495    3.86270678313787
H         5.48553224103559    2.53817207981132    4.30171783226868
H         3.92060123770137    2.06941900360874    4.47621944321509
H         6.12650602146180    4.32259706489161    1.69146316888065
H         7.39824494635879    1.64115456913825    0.89441185329980
H         6.88836267474805    2.23843180096947   -0.65100698816634
H         6.55599927492286   -0.49175923862994    0.25560432674423
H         5.66703995264352    0.18542863108961   -1.10744553125758
H         3.41463236286115   -1.07894504175529    1.98879233030239
H         5.08832948529906   -1.63827231524593    1.91112438186579
H         3.34893870655651   -2.71253770828918    0.20189327497259
H         4.89315317130372   -2.29333737137939   -0.36139100565625
