36
 energy: -47.844179517601 gnorm: 0.132277174339 xtb: 6.4.1 (79825abcba525fcdf90b791dcacef51065a7a4e7)
C         1.76676133079170    0.01649390530377    0.46823083272639
C         3.13760449582441    0.30731487659259   -0.18534458764199
C         3.44003378437791    1.79328130045206   -0.24177180134196
C         4.19534485570743    1.64419739696121    1.14972713162481
N         3.43253931962677    2.25622583607568    2.23049620418544
C         3.94060229366340    3.64460680015637    2.43491621125262
C         4.13666521596656    3.86975118547009    3.97115933290123
N         4.97042412139451    2.79968322914884    4.54081393766667
C         5.28668280536553    3.54532080907041    1.75474354781655
C         5.42405680525357    2.40135242747861    1.09906349546642
C         6.43892585998431    1.66566291020175    0.34223793990921
C         5.80609584499282    0.29819134245288   -0.01329924691560
C         4.45818164397918    0.17488476547883    0.84874766721429
C         4.25923391388171   -1.29511348734997    1.22007207789513
C         3.89100521308214   -1.85017281973351   -0.16535523216010
O         3.48675619354349   -0.78055456501318   -1.05514908277925
H         1.69291324505750    0.17252270642251    1.54993439394827
H         1.65882910640180   -1.05972379747189    0.32549452815338
H         1.00149397064277    0.59134459815653   -0.07377685698129
H         2.54994140231585    2.43139390321326   -0.26059939873094
H         4.07043882342874    2.23379490374525   -1.02743407071238
H         2.42066752877983    2.22346920476491    2.08123176638386
H         3.24843335010249    4.31774280449253    1.92239617203039
H         3.16148678916487    3.83928004768550    4.47040021808391
H         4.62164963083977    4.84054274558902    4.14338183996524
H         5.77654589412236    2.57172025668324    3.95688417404120
H         4.29617771975087    2.04206184353436    4.67081206737908
H         6.12057274428840    4.20096893460104    1.94526601362881
H         7.42885120697589    1.57772399121828    0.80553028524954
H         6.61202126795951    2.33081803008650   -0.51008002359342
H         6.43443435374901   -0.51586524832727    0.37664549045445
H         5.60096648449081    0.22588426321183   -1.08608424988409
H         3.43975963634986   -1.56278426079885    1.89271364690553
H         5.16965177047948   -1.79330244377952    1.58085919771006
H         3.13842857214423   -2.63697433667441   -0.02338450585487
H         4.70795770517710   -2.43041098702746   -0.59934063725643
