36
 energy: -47.840731397848 gnorm: 0.152219250262 xtb: 6.4.1 (79825abcba525fcdf90b791dcacef51065a7a4e7)
C         1.80737249670358   -0.05897886510395    0.46118243663503
C         3.20912912063533    0.11350265337816   -0.16832304521314
C         3.45413404018392    1.54858358813243   -0.59641068579562
C         4.15758738876063    1.88210253237085    0.79027912803934
N         3.31162419900413    2.60312388697254    1.73314040125303
C         3.97980299453217    3.80461548987293    2.31406403575036
C         4.13279912254799    3.66060595346445    3.86487899585473
N         4.74785967778909    2.37787617866991    4.24039271719296
C         5.35993977234101    3.60902274367127    1.72977706127311
C         5.41662670381689    2.58191740915033    0.89353974502798
C         6.38173327747924    1.78033045229360    0.13854911413650
C         5.86677628204066    0.32256761940570    0.21982534994379
C         4.43775580960605    0.39359597002354    0.94650103725544
C         4.29613286856446   -0.91422742193893    1.72617904228488
C         3.98040246104404   -1.84118652320361    0.54120933517273
O         3.56846690511746   -1.17917597687079   -0.67997235222980
H         1.55586624518311    0.77880845820525    1.12052918048891
H         1.75738935324009   -0.96385091992952    1.06861623057302
H         1.04006212310951   -0.16320133533927   -0.31999120400676
H         2.51986174701278    2.10144823239279   -0.74229624058936
H         4.10747378198496    1.59728385121091   -1.47930559758487
H         2.33870938041158    2.82758903613813    1.50888707456199
H         3.52613306392768    4.76832175371110    2.06842088303476
H         3.09834870220986    3.61570040177192    4.22409861551808
H         4.72704479876037    4.51945004098182    4.20629610032362
H         5.62423929080013    2.36047379812091    3.71653268922626
H         4.17442556547635    1.59287114340855    3.92347269154624
H         6.18848583304277    4.20010581176807    2.08428791705119
H         7.38663666636826    1.81872923852224    0.57560741323661
H         6.41046932382983    2.09126988516661   -0.91089368169882
H         6.52872694106374   -0.43290804856503    0.66774516603740
H         5.81172422207443    0.03993570176462   -0.83623454427295
H         3.46001749351916   -0.90598021987640    2.43078919802244
H         5.09550174713744   -1.34809455369725    2.34261149798934
H         3.11560561540063   -2.38289487556671    0.94650230271110
H         4.66262536613450   -2.65994678501975    0.30322912454254
