36
 energy: -47.839923414500 gnorm: 0.154184421048 xtb: 6.4.1 (79825abcba525fcdf90b791dcacef51065a7a4e7)
C         1.77298015528750   -0.15462842742082    0.42494494414863
C         3.14788899298917    0.18601069272266   -0.19516736463182
C         3.41100969385747    1.67061235907817   -0.36683286947257
C         4.18651887935142    1.72833038387533    1.02033835951725
N         3.53326252142457    2.20572528070734    2.23271735348376
C         4.07196213413021    3.59306697761514    2.34497976161926
C         4.06610230819972    4.11635620149235    3.81987214170738
N         4.55621009920852    3.25249599057148    4.90534234433372
C         5.44351058501547    3.45402478450570    1.72534498603460
C         5.48396999900620    2.36099363241858    0.97628072471322
C         6.35537128430065    1.61465482370773    0.06654390587665
C         5.77754882607930    0.17941334909283    0.01120871163144
C         4.43453378400035    0.23182560254857    0.88800142905029
C         4.34117286424956   -1.22505596207136    1.34312383623832
C         3.98908846017014   -1.91631869126371    0.01598993273202
O         3.55249690469535   -0.95137975477662   -0.97270324815707
H         1.48963084890552   -1.20563994013313    0.30259675956554
H         1.11767269774512    0.58237820066487   -0.04159650028893
H         1.78565548886154    0.17130527073013    1.47540500388989
H         2.56519849799086    2.36626847654628   -0.34509464713611
H         4.17598069074841    1.91176367403898   -1.11875927087164
H         2.51141779386746    2.19637598487273    2.17809813327036
H         3.50766890595085    4.32146436718834    1.75684963701903
H         3.00184621866171    4.28352166445841    4.02126125890862
H         4.54935710760931    5.10211584484831    3.86514270899300
H         5.56575872256133    3.11763307109904    4.83187833187132
H         4.16877380917106    2.30727253045370    4.94942876016464
H         6.21658877600817    4.17540476059103    1.93392737152138
H         7.39513068406766    1.56031127459193    0.41045133642332
H         6.31528103015403    2.12042725140744   -0.90372729836191
H         6.36319834806476   -0.64938344355341    0.43507752642582
H         5.49965503047976   -0.26921464104438   -0.94779177705608
H         3.50072934244175   -1.28037957686873    2.04042313709093
H         5.25138103440265   -1.67650135975712    1.76138010254780
H         3.24945814117257   -2.71236791132519    0.17358600629968
H         4.85343004014888   -2.41757237421306   -0.42456584358036
