36
 energy: -47.851162400643 gnorm: 0.123720627040 xtb: 6.4.1 (79825abcba525fcdf90b791dcacef51065a7a4e7)
C         1.85496884308078   -0.11563676486105    0.61956832468822
C         3.20863897690371    0.12275806910681   -0.08873509080020
C         3.40808463643771    1.56447533837481   -0.51817247990442
C         4.08846638228824    1.80344617083967    0.89920671758086
N         3.35583896790899    2.39882709027791    2.00974332024165
C         3.96526415331132    3.72254677774704    2.33205430734787
C         4.07443671084841    3.70591826715077    3.89313676900080
N         4.72618625756802    2.47282058166024    4.36153653793718
C         5.30962567509253    3.59578697616439    1.65304813095458
C         5.31829640156826    2.55723386228506    0.82916470743177
C         6.36107208195523    1.89898623629464    0.03966348793055
C         5.88392213406091    0.42626102888732    0.02331057167814
C         4.54603064118581    0.35115950509339    0.90626483483440
C         4.37731419026915   -0.97533247159190    1.64809411737514
C         3.99279207220031   -1.87428612152248    0.46187442641101
O         3.59824666553102   -1.11360309426808   -0.70642726162956
H         1.59017892435727   -1.17456055242244    0.52765623636981
H         1.06769802297526    0.38995342669547    0.05845267020518
H         1.68078529477527    0.23664606736853    1.64690307447856
H         2.52223360918562    2.13242745101880   -0.82231882318986
H         4.06152231014827    1.67364007061408   -1.39557218012387
H         2.43925796429165    2.53612880404121    1.57584830423232
H         3.36944839678606    4.58214238466394    2.01427182068790
H         3.06393627328540    3.72241992139553    4.31711728763467
H         4.63006600906121    4.60558467188307    4.19177228979140
H         5.55602878424547    2.37586138316324    3.77439627129477
H         4.07046036149923    1.80279856590163    3.95337978469585
H         6.13268750193485    4.26430339264115    1.84592311803982
H         7.34803885311850    2.02458930348981    0.50058182883791
H         6.44037203434364    2.30541052903145   -0.97392918122317
H         6.64776407043877   -0.26143542730780    0.41468431688904
H         5.65089674459578    0.00594249899920   -0.96015551376663
H         3.63038099815040   -0.91678237070043    2.44452057583234
H         5.26888481950306   -1.41591122958110    2.11522625665369
H         3.20270059466925   -2.55940541959768    0.79646510521856
H         4.83204189565292   -2.45633774250686    0.07547219744572
