36
 energy: -47.847722708424 gnorm: 0.141581590433 xtb: 6.4.1 (79825abcba525fcdf90b791dcacef51065a7a4e7)
C         1.81291646240342   -0.09210902502982    0.62078227908604
C         3.14668528024881    0.16364616822372   -0.11854083792904
C         3.35647538877776    1.63104998348671   -0.44328362164091
C         4.17565556081724    1.75404294406598    0.91421656364889
N         3.37759844098706    2.37929948820152    1.96143765093444
C         4.01227398949271    3.68718425243680    2.29928619518727
C         4.09618220313630    3.91620906587162    3.84514539297465
N         4.65444891065850    2.75994765442099    4.56354886787965
C         5.39941051738953    3.54872690968388    1.71524240998248
C         5.44276817848683    2.44326348210681    0.98481625208203
C         6.51661492654540    1.67266889364122    0.35472072742698
C         5.84342238021220    0.33703085759225   -0.04495645958252
C         4.51558872441789    0.27102484313255    0.85376657323018
C         4.32732150913844   -1.13647050947102    1.42110173002395
C         3.93980460960732   -1.91608011946030    0.15416385113680
O         3.43667466394061   -1.02444216491475   -0.87105592788855
H         1.62334701396733   -1.09492963796395    1.01864577753002
H         1.11078215279820   -0.00109242067174   -0.20927250841599
H         1.64429754913979    0.66820325802088    1.39754008036811
H         2.42724069546891    2.20975032151728   -0.40539646668658
H         3.99991160539958    1.87617029403838   -1.30039145158760
H         2.38712936288845    2.57718092933888    1.79696473213892
H         3.51005461337073    4.49982475305976    1.76798793322233
H         3.13219849097637    4.18603398275776    4.29132118633024
H         4.75450521813621    4.78006380784058    4.01149600089702
H         5.45929566268369    2.48662560805874    3.99760703067233
H         3.95634858648651    2.01432537359229    4.51663148093901
H         6.20010180825658    4.20680102022928    2.01083951987701
H         7.39746309394181    1.48889008280997    0.98134430685236
H         6.89429396864014    2.31005296542346   -0.45146744284934
H         6.44621704277722   -0.55881270912415    0.16398664465181
H         5.56056743780609    0.17173552305523   -1.08939150899675
H         3.64557612023249   -1.13737878299221    2.27600219904353
H         5.31643146863591   -1.53397375196702    1.68732140202544
H         3.21169098139175   -2.63835453454066    0.54627879658754
H         4.76005376212713   -2.42063962882652   -0.36065851474972
