36
 energy: -47.844762042991 gnorm: 0.147446746720 xtb: 6.4.1 (79825abcba525fcdf90b791dcacef51065a7a4e7)
C         1.95678008342742   -0.11442306418287    0.66129631076378
C         3.24806720862586    0.10857137101877   -0.15955672286420
C         3.39049263044225    1.55589045905283   -0.59283053739767
C         4.08068237401523    1.90299301872566    0.79718676513942
N         3.25662030018394    2.47065445891638    1.85699575832966
C         3.99808871237569    3.65324786221181    2.38540345262641
C         4.34344291677529    3.51053186551326    3.90511929344233
N         4.16835868161050    2.14379000247685    4.42093700588420
C         5.28234758521306    3.70313698853501    1.59003211444282
C         5.29741079164790    2.67935131886976    0.74795867800356
C         6.23260836143603    1.95640028237670   -0.11617704638618
C         5.82046534594362    0.46520275457122   -0.05849599775277
C         4.52249533569484    0.44846885860744    0.88500595569031
C         4.56191169942499   -0.85080702395196    1.69041605100210
C         4.07415086422490   -1.84557906423742    0.62476599680207
O         3.63896756487603   -1.20171292231116   -0.59805266151983
H         1.48425051221749   -1.04125389999531    0.31839468009867
H         1.27407495031427    0.68144223445006    0.35999962725263
H         2.09301107136375   -0.08927632314286    1.75247390860787
H         2.54062955452306    2.19560293578134   -0.85418727241197
H         4.02575483511771    1.64051508353812   -1.48614379266438
H         2.34954427299298    2.72181386537231    1.45528762238205
H         3.39442859445945    4.56357886871696    2.34322935818982
H         3.79023087353592    4.19439782161293    4.55889808919973
H         5.39101588846534    3.73502124724348    4.14904986239482
H         4.88532910283311    1.60454997391300    3.93313888647073
H         3.22739670776723    1.79147655827577    4.23129605307753
H         6.12226129965897    4.33451123883013    1.82973453290107
H         7.26982357125148    2.19458308288212    0.14797976582898
H         6.19909525431101    2.29274933949333   -1.15761138055693
H         6.63249825109167   -0.11952455705260    0.39784911018827
H         5.64688462560046    0.00627873980449   -1.03698080874512
H         3.93008612273788   -0.77097885217345    2.57926717244861
H         5.57796819772943   -1.04743759411580    2.05944974739223
H         3.29034768211305   -2.49032454830929    1.04374064037888
H         4.95741710536477   -2.44129314418712    0.38519028829046
