36
 energy: -47.842643712249 gnorm: 0.148404075302 xtb: 6.4.1 (79825abcba525fcdf90b791dcacef51065a7a4e7)
C         1.77901111000275    0.01627816820396    0.72576230014274
C         3.10130364434766    0.12202614349851   -0.06878692173772
C         3.40789339525791    1.53936740575987   -0.51587772676753
C         4.16153010947340    1.79450255136289    0.86104925898270
N         3.38832411542046    2.41483317179491    1.92962556182609
C         4.13152620251127    3.68497407794127    2.17844272218362
C         4.06946631669188    4.01789854427411    3.70634438495749
N         4.15567603252485    2.85985220670473    4.60978353107518
C         5.52320444800925    3.43044674765084    1.64658481322319
C         5.47087477708744    2.40178518321195    0.81197793364731
C         6.47194399035167    1.64493672924026    0.05764108383651
C         5.80022221071277    0.25071824648239    0.01517126501152
C         4.46368323632818    0.30266085106346    0.90183220115064
C         4.53145881545348   -1.06703535075472    1.57836427870256
C         4.15115778124990   -1.94029813209769    0.37176769677234
O         3.36844655546583   -1.18948079303296   -0.58889355336191
H         1.57509523001211   -1.00835663080699    1.05503872113398
H         0.95620115461717    0.33213972591278    0.08273600599517
H         1.76161923602539    0.72306026016160    1.56838699946276
H         2.48676685804990    2.12214419041818   -0.62406161461644
H         4.07464305365858    1.53027871962998   -1.39000028666039
H         2.43057800580605    2.58465068113511    1.61162902537988
H         3.75789641469673    4.54105430896017    1.61062748268347
H         3.13504598097073    4.51050073002426    3.99848244628765
H         4.83005878238235    4.77688172639696    3.93601886486914
H         4.98352453367935    2.29591221829160    4.41125910109271
H         3.36927202187918    2.20941693234306    4.54653341242250
H         6.30187081379039    4.14646173164914    1.85285398292228
H         7.47406358348753    1.61698363545850    0.50182595876529
H         6.58772727470713    2.12048050656624   -0.92179325600237
H         6.45171219122525   -0.50210930208795    0.48246753250185
H         5.73620693918994   -0.02705374110777   -1.04167252825741
H         3.84164484798527   -1.08350300260987    2.42660829546185
H         5.53604311367377   -1.36920923233282    1.90504697957893
H         3.64075712643015   -2.89799119965371    0.53879786768810
H         5.05291256015120   -2.09939700809652   -0.22317507498789
