36
 energy: -47.838933291085 gnorm: 0.141926848916 xtb: 6.4.1 (79825abcba525fcdf90b791dcacef51065a7a4e7)
C         1.80358488231933    0.02313804533074    0.46762886448074
C         3.21868052959849    0.11593840520501   -0.14868360835519
C         3.40884974875167    1.58407143969302   -0.48209745528122
C         4.15552209977881    1.81394514544110    0.90304824845546
N         3.40680955120177    2.37367039289459    2.02137290725080
C         4.06385624860191    3.69249367212852    2.25909547498587
C         4.16242547662505    3.87434317393664    3.81034931102568
N         4.36600728942450    2.58091112202903    4.48138857048758
C         5.41032583401892    3.58788926286951    1.58049184433693
C         5.38727076360346    2.55270210364119    0.75265874474842
C         6.31072955842834    1.73324568582194   -0.03455040393710
C         5.91177351647090    0.26035702852049    0.22677715638785
C         4.47880215165635    0.32660219188408    0.94608705603285
C         4.33727834370026   -1.02360878342921    1.64983288296497
C         4.02192585756286   -1.90351641528219    0.42942006899648
O         3.63296803573845   -1.12917692323326   -0.73176197608651
H         1.75368564850685    0.49713081863119    1.45389558307244
H         1.61886214890953   -1.02678732402502    0.69958100346109
H         0.97728834431355    0.41269250353042   -0.14502205326205
H         2.52479621547413    2.19400229073254   -0.69713313207481
H         4.01378764029687    1.68865149040159   -1.39415069982749
H         2.45342033387053    2.69529857146016    1.83471358789380
H         3.59360830071783    4.54743333812567    1.76631585761280
H         3.21432576831920    4.29730327564535    4.16156806420766
H         5.02422433801199    4.50198996854134    4.07618563901544
H         5.11418518264163    2.11426865826463    3.96636619320793
H         3.62565640503466    1.88411104873363    4.37253952279358
H         6.20876829497561    4.21481330542888    1.94243328252800
H         7.37005634945622    1.86937810794473    0.21368327753284
H         6.31162154140850    2.10852004422296   -1.06314538622133
H         6.72130904720841   -0.15306165282373    0.84588258979170
H         5.91023209343422   -0.31915520706219   -0.70184398597789
H         3.55015047369927   -0.96831199470255    2.40680341296605
H         5.23908578269582   -1.47739195380953    2.08347378391561
H         3.16963511291750   -2.50971878041751    0.76364019546017
H         4.90745812735985   -2.48832635977596    0.17200801860227
