36
 energy: -47.845794808075 gnorm: 0.137358857001 xtb: 6.4.1 (79825abcba525fcdf90b791dcacef51065a7a4e7)
C         1.81896924161387    0.18319974368322    0.50943206394946
C         3.20196010146672    0.20589810855606   -0.18177671730924
C         3.47040179330244    1.64096359525190   -0.59562415122898
C         4.03671335789783    1.88013290020475    0.87103169692277
N         3.19385660129416    2.43971757715156    1.92030301264151
C         3.91881965408046    3.64053513203501    2.43018830177157
C         4.27407776631283    3.28538559366791    3.91236038606708
N         5.00219719458846    2.01132075866234    4.01869296227116
C         5.13366491460875    3.78955079436885    1.54341287675215
C         5.23093311716903    2.68984616736738    0.80949171625665
C         6.33730744584809    1.87959171920359    0.29626001416331
C         5.89040659778075    0.39757742750133    0.26847028387657
C         4.43496249983640    0.41228101968367    0.94424266088801
C         4.24033944592295   -0.93427964303440    1.64227775229961
C         3.95696201274707   -1.86741623139046    0.45398260022111
O         3.58553657711046   -1.07646150203369   -0.70172813289105
H         1.01943417504994    0.54497266884742   -0.14611740848433
H         1.79101832757425    0.74933921541038    1.44161893848101
H         1.57736700133555   -0.85605929891638    0.77669364573050
H         2.59358424859452    2.18448140949990   -0.96384413171707
H         4.34141056089677    1.74558402321810   -1.25829012576490
H         2.28724216002473    2.71645372375111    1.53468047199635
H         3.23824914467975    4.49472354764481    2.47571480445002
H         3.35820631598598    3.22115533505266    4.51085590194087
H         4.96118558021402    4.07335450250566    4.25043520465521
H         5.93638040886273    2.20074918564258    3.65237071059715
H         4.56305832025664    1.41337046257413    3.31505215777476
H         5.80296641749273    4.63194429505442    1.60629707608183
H         7.21010835954818    2.02892826346009    0.94297664753777
H         6.54286902537689    2.09705774911659   -0.75696941841867
H         6.49321418708575   -0.24762008865887    0.92413596072138
H         5.94099871734252    0.08317231194676   -0.77879466691135
H         3.45248034820085   -0.95456517422774    2.40023482405774
H         5.11018284293483   -1.12710083573078    2.28524950565438
H         3.17553193161513   -2.60211189025200    0.68887238475342
H         4.79281767977368   -2.46111247914318    0.07808223322279
