36
 energy: -47.840152401153 gnorm: 0.129562334236 xtb: 6.4.1 (79825abcba525fcdf90b791dcacef51065a7a4e7)
C         1.87383939624585   -0.09025054102752    0.78005320137401
C         3.15824707940676    0.12433317741617   -0.05373297085601
C         3.41187431410525    1.52030121440414   -0.59196171946348
C         4.10354886263086    1.80418141707622    0.81160107041454
N         3.32052527439358    2.48130520106389    1.83770552793336
C         4.00978291464932    3.70303402773112    2.34743078770373
C         4.35379754185600    3.66953663052535    3.87376806404641
N         4.17652924151483    2.40520462676133    4.60503153234858
C         5.30459105525407    3.64554053292481    1.56987583324200
C         5.30023852329750    2.60963795865131    0.74262825819576
C         6.33965419128461    1.93115165973271   -0.03406642206374
C         5.84868472132953    0.46809463675349   -0.15764693804321
C         4.57877387390100    0.35757112162756    0.81719309536075
C         4.52760113672286   -0.97373184266254    1.56777330471956
C         4.12405995158769   -1.90285134765788    0.41149326439984
O         3.41140068469544   -1.17212216780464   -0.61679911289716
H         2.04780222195166   -0.84648916741676    1.55317750897294
H         1.08647814158419   -0.43206350877435    0.10663378382004
H         1.60665930846321    0.80919558274126    1.35404907177789
H         2.50989622407153    2.12886854070973   -0.71800918239728
H         4.13250806430656    1.58270215715847   -1.41992372198851
H         2.32002522040228    2.60398165242923    1.66110559027068
H         3.52569238198445    4.66136330787183    2.14213081301771
H         3.65343283122887    4.28547596442005    4.44931209484255
H         5.37530544403162    4.03041034559886    4.05706700983676
H         4.83564061279215    1.64452018131249    4.43268079624994
H         3.34752834486228    2.01894472136755    4.14780217206996
H         6.11837675180114    4.33151509856411    1.73939710153716
H         7.19539829998299    2.01705251612420    0.64611612589958
H         6.59912161082307    2.38363399940269   -0.99675831216813
H         6.62550708504758   -0.21173393889422    0.22173999044134
H         5.54176164317284    0.15698257857578   -1.16123128840466
H         3.77465738945363   -1.00341958560377    2.36012850396794
H         5.47824722785474   -1.33386039469520    1.98466621253427
H         3.57276237559903   -2.73657629566956    0.86597935823006
H         5.01550933787584   -2.28498159638381   -0.09022926996287
