36
 energy: -47.843278813785 gnorm: 0.130731640450 xtb: 6.4.1 (79825abcba525fcdf90b791dcacef51065a7a4e7)
C         1.75043338039228   -0.12516724984792    0.41137908247027
C         3.17836799955462    0.02098214307910   -0.16359199706264
C         3.44325798252633    1.47798995609314   -0.49480984201177
C         4.09828968105126    1.79933456789029    0.91822280112233
N         3.41632854610291    2.56870308955768    1.95142848364283
C         4.11875755072543    3.85738752062163    2.22235867197238
C         4.04153253128310    3.88999899134537    3.78509549931448
N         4.52570731999264    2.67070886252022    4.45113759604122
C         5.45218311091473    3.59589197722988    1.56052661998628
C         5.36192075450687    2.49297198996670    0.83054592493331
C         6.38860633278042    1.73060141139417    0.11732014530187
C         5.81202598670386    0.29437085397346    0.07662742907525
C         4.44041879643836    0.31561608668576    0.90936055070578
C         4.29192738629875   -0.96757799204604    1.72772484008694
C         4.01227513937820   -1.92127368233710    0.55497115001761
O         3.69629447267278   -1.21812996982373   -0.67180458911283
H         1.31066228717077   -1.04319214695626    0.00676470211408
H         1.13855074963715    0.68033165716756    0.00267537328418
H         1.63264504734131   -0.22240943519287    1.50065850398566
H         2.51870225479587    2.02571009736633   -0.70695597386539
H         4.16664414796145    1.67635843077168   -1.29860730374543
H         2.40761571236931    2.74093350167123    1.95994357698294
H         3.61233336542225    4.65783870974398    1.67674052773626
H         2.99499738154771    3.95717547172297    4.10352040152936
H         4.57534710421414    4.73302550995842    4.24515530320650
H         5.53306686069971    2.52956134746209    4.36126249364224
H         4.11358436977721    1.87560062532432    3.95772554286419
H         6.32314705676939    4.23043460012891    1.57850362436869
H         7.40369830696746    1.79313609397863    0.52720176483748
H         6.54464828083060    2.07501348912598   -0.91023545015529
H         6.60099512024031   -0.34284552044270    0.50211223241590
H         5.72276946626790   -0.09165085424355   -0.94376198114090
H         3.49622255279217   -0.92186801253895    2.47632140678813
H         5.18006621262348   -1.30361545333341    2.28045307576199
H         3.15280048617141   -2.51141364729376    0.89938667731795
H         4.87165330100898   -2.56697241418921    0.36268657330140
