36
 energy: -47.841196058263 gnorm: 0.147578623806 xtb: 6.4.1 (79825abcba525fcdf90b791dcacef51065a7a4e7)
C         1.75116192924997    0.08655397743188    0.52242270765308
C         3.17685634552914    0.16170067512223   -0.07146027333226
C         3.52369590253386    1.52060606465820   -0.65096188645507
C         4.10954064743201    1.96534596140448    0.75899636492914
N         3.25143180160529    2.65274241544962    1.71589129852418
C         4.09414064416521    3.69032794211580    2.37980032203771
C         4.06636255476957    3.30019385250117    3.89512116803140
N         4.56256006583090    1.98138693919729    4.31849102425887
C         5.41894274237742    3.60694394829983    1.65704748351020
C         5.38694635656572    2.63896777340560    0.75181286036177
C         6.34046861849006    1.89585129710987   -0.07435669707912
C         5.80200387928128    0.45434692650578    0.09587773808581
C         4.45602553539224    0.49750516387705    0.96862144954947
C         4.36919606950519   -0.81165642063450    1.75405964782076
C         4.10645148084070   -1.81820593536547    0.62228433974306
O         3.50262740364205   -1.16286574088331   -0.52015132884355
H         1.58147873223500   -0.98360593646644    0.68319111002930
H         1.09828538707284    0.49058307738038   -0.25267745244410
H         1.64193057169830    0.74504728955858    1.39667372558363
H         2.65402261621815    2.17586305014212   -0.76976099141231
H         4.20558572306085    1.52620222054274   -1.51335555541579
H         2.32998052165615    2.98271201653291    1.41708548510979
H         3.69738346452205    4.70550968358052    2.29687610428552
H         3.02528733535506    3.36521056633821    4.23139205427733
H         4.62182742118638    4.03362823515725    4.49582033817141
H         5.47486655465319    1.85388220296072    3.87779520383440
H         4.06574356188641    1.18974288286847    3.90379724304844
H         6.27982177082875    4.14907761513223    2.01274957233554
H         7.36700566613876    1.90452643335835    0.31096342752176
H         6.43819507131658    2.24739460162088   -1.10668708761049
H         6.52693332242027   -0.08568942895016    0.72228998673072
H         5.71287016105091   -0.16209435854376   -0.80424964021620
H         3.40298162741687   -0.72045620162048    2.25779024407426
H         5.19839692662502   -0.92132943311771    2.46653276479309
H         3.46937884625436   -2.67170884339117    0.88922091575725
H         5.09522614294617   -2.13890505070990    0.28775816638284
