36
 energy: -47.840061635707 gnorm: 0.141074714513 xtb: 6.4.1 (79825abcba525fcdf90b791dcacef51065a7a4e7)
C         1.80217921566519   -0.01302677170508    0.66137084181683
C         3.08021187064714    0.22215406874245   -0.17664536426862
C         3.42722182464984    1.68576116976728   -0.37710001955064
C         4.21948518796566    1.72108650465081    1.00132698187563
N         3.43377252483776    2.27838179581305    2.09521474620931
C         3.94217437502203    3.65526933337986    2.36581683435240
C         4.00279533419716    3.86496745445916    3.91550241169263
N         4.74971754170932    2.74032124611344    4.50029625060462
C         5.33723981808711    3.52733608983639    1.79849787484322
C         5.44511333307918    2.48476707666889    0.98679302032958
C         6.51642953552263    1.70317763845125    0.36600099293667
C         5.84448970251054    0.38113087992331   -0.07846299534160
C         4.48068994077045    0.24123919373782    0.75561290102960
C         4.53915216155738   -1.20128071569058    1.25967176059564
C         3.82318217889855   -1.88722738108584    0.08495638067070
O         3.35692589718252   -0.96702641926258   -0.93242695270340
H         1.04203909444782    0.70345362540379    0.33163768054020
H         1.93310667530006    0.25707823319493    1.71026018341804
H         1.37979268516956   -1.02708836414256    0.60543788603097
H         2.51596089884432    2.29345069410757   -0.38821714759194
H         4.08497168583317    1.87971674043533   -1.23644529846508
H         2.45753190393063    2.41132195708086    1.81859488906747
H         3.36797348863124    4.44274870677487    1.87078522097941
H         3.01636440097452    3.83892752760651    4.39238693920085
H         4.36839993784361    4.88597991957054    4.09206273226648
H         5.66966199257105    2.63452356721816    4.06985176355281
H         4.22710808139032    1.96966175546619    4.07784958091456
H         6.12656218352307    4.23461475621269    1.99413223216533
H         7.33335430832125    1.47092791533878    1.05955648647020
H         7.03486638753823    2.10382234471563   -0.51123690455297
H         6.42009138886152   -0.53563542143601    0.11589893739319
H         5.65192543273879    0.25562952030307   -1.14866972417500
H         3.89169298586949   -1.23843055227866    2.14004037761769
H         5.55782853502723   -1.57840221341494    1.42489304250844
H         2.99093773582729   -2.43369860124162    0.54790595268502
H         4.53061734133532   -2.60145638719959   -0.34147468451035
