36
 energy: -47.838449063520 gnorm: 0.136830232980 xtb: 6.4.1 (79825abcba525fcdf90b791dcacef51065a7a4e7)
C         1.87160108685573    0.01687570539737    0.52446855993518
C         3.23074983303850    0.13830645200683   -0.20279887638925
C         3.44190099216953    1.58753733944683   -0.60015106498480
C         4.11908385775086    1.82395828211088    0.81918634657118
N         3.33927778898739    2.40076529472292    1.90717029919123
C         4.01410769891165    3.66487352480612    2.32448580097473
C         4.16020796024653    3.74089522068960    3.88077916156167
N         4.73065073737285    2.46975890656726    4.35355101541496
C         5.41077925105431    3.53466126869677    1.76165485503326
C         5.36556044486893    2.55120898044691    0.87383250898635
C         6.39185609565773    1.87765435783636    0.07569427400280
C         5.99892174831091    0.40890650950853    0.36765553419389
C         4.48561647214481    0.34816332988904    0.89814542674380
C         4.19601614573331   -1.00401543579620    1.55090965026706
C         3.84887647572950   -1.92833845081268    0.37268509493707
O         3.48447075033106   -1.14659962635360   -0.79149979661571
H         1.68455083428958   -1.00750931437582    0.86436362876336
H         1.05836805944702    0.31587722935526   -0.13849274901304
H         1.68942687346204    0.61398160372736    1.43008265822227
H         2.59258632073735    2.20867808982084   -0.90454456892821
H         4.24466272678307    1.81977506125794   -1.31455095141795
H         2.35198012566675    2.24953316510312    1.68443824206055
H         3.47784223969429    4.55045013277793    1.97368648602273
H         3.17257037208990    3.75253447718795    4.35573120273733
H         4.75517700117155    4.62115053727817    4.16090261847492
H         5.60060084164732    2.30523707845123    3.84473593834366
H         4.09894925046218    1.76877767811653    3.95975355845979
H         6.15779948571163    4.27402060821405    2.00009620108401
H         7.39278090480577    2.27839254768419    0.27540328220931
H         6.17449232090009    2.01824056178714   -0.98817967951069
H         6.58586994929473    0.02298416713509    1.21388840809691
H         6.12451406238567   -0.15610153068795   -0.56141202201967
H         3.42142530723388   -0.92045270222370    2.31815062886066
H         5.05560727228688   -1.46543720011639    2.05629397247523
H         2.97924422598289   -2.54317704572090    0.63970039912074
H         4.64489241166162   -2.62967405953444    0.11399988752924
