36
 energy: -47.835085319216 gnorm: 0.149066416087 xtb: 6.4.1 (79825abcba525fcdf90b791dcacef51065a7a4e7)
C         1.86641828536161   -0.04453715978224    0.39029451625064
C         3.28063890205430    0.09590970277382   -0.21897010244340
C         3.43320253878574    1.57570059601901   -0.51844792478790
C         4.13293962605576    1.71348034381080    0.90295099932659
N         3.53433815090378    2.36203340211794    2.06293725524044
C         4.04526735380719    3.73633508060840    2.34179833558104
C         4.20194366203340    4.01496975963631    3.87378687227038
N         4.50582639559094    2.77846489642253    4.61095492092374
C         5.33769136289381    3.59706140327876    1.57065090572515
C         5.33593668925101    2.50764168352530    0.81526144120237
C         6.31568531117367    1.76034563080798    0.02429717796054
C         5.92985892953089    0.26374297806392    0.11472687040572
C         4.52971489936706    0.24341181536831    0.89855430970345
C         4.19766897343558   -1.08499951801382    1.57930809577393
C         3.91741245110721   -1.97406537163930    0.35697006307817
O         3.59457369614304   -1.17545778046995   -0.80803407094227
H         1.68290160059594    0.71107696669626    1.16181900596196
H         1.69251468747458   -1.08329041968435    0.67492895871578
H         1.24190574605856    0.07414093913169   -0.50734649386180
H         2.48359106523160    2.12162954431891   -0.52095009211602
H         4.12667061392300    1.86881056148718   -1.31964486356565
H         2.52158007432455    2.39287701318385    1.91938537454094
H         3.35971497550219    4.52993699145396    2.03341435796981
H         3.23797876746968    4.34753137917208    4.27543021407125
H         4.95441744554032    4.78307666298769    4.09984378790453
H         5.43085569088979    2.43547736414540    4.34741411643915
H         3.83642469343786    2.01570863734212    4.48604638657876
H         6.07389045305547    4.35463457795111    1.78428497899561
H         7.22150223091417    1.96538630588084    0.60720305990263
H         6.45785846523855    2.09167670291976   -1.00955281233387
H         6.57121523004431   -0.30563446524026    0.80322214588170
H         5.93369637197098   -0.21842520961754   -0.86795983256479
H         3.31548998328265   -0.91658602913823    2.20303041441188
H         4.93622202414824   -1.57557908202582    2.22822361311164
H         3.13548137137543   -2.66233436513211    0.70403417089497
H         4.74598398578195   -2.61474134824952    0.04804524396453
