36
 energy: -47.846179238216 gnorm: 0.121133086510 xtb: 6.4.1 (79825abcba525fcdf90b791dcacef51065a7a4e7)
C         1.72008945490583    0.09056836419235    0.46755937824250
C         3.13240605648880    0.16718023792446   -0.15729348755092
C         3.44854043333326    1.63165417177453   -0.39837206995381
C         4.17493177166669    1.67044283459526    1.01578535313937
N         3.34099249476982    2.25477489623951    2.05867280353373
C         3.89179630945157    3.61766489464445    2.31686507195990
C         3.97737905894050    3.93612615476017    3.84671199896198
N         4.95141827553381    3.04244975851830    4.49269637826069
C         5.29458805645598    3.50474856538157    1.76563867861796
C         5.39743276227249    2.43861837773167    0.98445942071544
C         6.43933717846712    1.72078054451639    0.24748773994614
C         5.89765537664723    0.27050762677530    0.23530954041622
C         4.44050940211554    0.17551708356748    0.90082025040279
C         4.29786479712970   -1.26622655641478    1.39008980383173
C         4.01828350648300   -1.96977534858356    0.05220136211312
O         3.53898851287942   -0.99096385186454   -0.90249123008178
H         1.40448889853825   -0.93683842535602    0.67901316008608
H         0.96466080471266    0.65593597195236   -0.08012172326105
H         1.72751888197069    0.51946222730749    1.48040420788226
H         2.64348204477156    2.36779961773711   -0.49725334895069
H         4.03653072195340    1.77434964068235   -1.31632271692357
H         2.37105187407060    2.36908930167858    1.75308353837144
H         3.35417899138044    4.40979601211022    1.78924528924852
H         2.99175487384165    3.86224811296908    4.32024121616857
H         4.33685667295227    4.95118285965846    4.06521248284605
H         5.82055837128543    3.00845084412791    3.95770762491893
H         4.59590638108129    2.08502185424149    4.44329000676057
H         6.05518674706379    4.20021278014078    2.08086064252099
H         7.38435553905786    1.80990420736900    0.79641625809851
H         6.63875808595433    2.02305755923348   -0.78580756967006
H         6.50934412814179   -0.44226292569505    0.80745404162239
H         5.78011505376563   -0.08431835120383   -0.79350377049351
H         3.54218482624779   -1.44589167965572    2.15970051446439
H         5.20611671438769   -1.63662996486035    1.88516558925804
H         3.27230147220232   -2.77447656145603    0.09158007284645
H         4.84534313798197   -2.43478380154957   -0.48832666377002
