36
 energy: -47.846625896024 gnorm: 0.123576057497 xtb: 6.4.1 (79825abcba525fcdf90b791dcacef51065a7a4e7)
C         1.70037235177762   -0.03436591887300    0.50115579230415
C         3.13256503065881    0.06955480345288   -0.07240613711405
C         3.36468364180392    1.50285319305537   -0.51345082062489
C         4.09561813425376    1.81562481479010    0.86382869361314
N         3.38767595272560    2.33925991662004    2.02535228741539
C         4.00853915200320    3.66121003985322    2.33275105804942
C         4.15733319383096    3.72555769581245    3.88931564890826
N         4.92505478499665    2.58897845277659    4.42175992108022
C         5.29098566825422    3.64927135848169    1.53299250891200
C         5.31954193987126    2.57471023285113    0.75713518507208
C         6.36273477465866    1.91435416322722   -0.03005082469755
C         5.93908259227852    0.43314770098487    0.12293699399020
C         4.51105176254653    0.35077501934188    0.85036039688499
C         4.35167828578930   -0.96622150319888    1.61093723877943
C         3.95487060320826   -1.93593895987139    0.48608889411803
O         3.45636026622738   -1.20069965193256   -0.65852640593038
H         1.03596398734032   -0.28112270389701   -0.33404103373658
H         1.37539284043828    0.94843712862781    0.84576289345758
H         1.47525208854051   -0.79478433898683    1.26335293774105
H         2.47255205445891    2.03465208314394   -0.86144194340524
H         4.18454881312830    1.66856047516120   -1.22695635849670
H         2.39410139917123    2.51988960833464    1.85976269115049
H         3.43434485973057    4.53371647285126    2.01038454339568
H         3.17851164330741    3.67414831494388    4.37963020981017
H         4.73746475761536    4.62805218467794    4.12650291348562
H         5.70379518533934    2.52749252699579    3.76406982118615
H         4.40919174086123    1.72526774803301    4.23903874631719
H         6.11991775471869    4.25237690229542    1.86568010239731
H         7.31571832564169    2.06019039882841    0.49232776609020
H         6.46205656182578    2.26613328538379   -1.06214865333825
H         6.62641516314349   -0.08920463880990    0.80431522319566
H         5.90926354992089   -0.17773090774884   -0.78486925885151
H         3.56276551871364   -0.90334084605181    2.36545369216016
H         5.25784772919436   -1.31261908102964    2.12677240485955
H         3.20572770433202   -2.63341764602763    0.88344555693579
H         4.70432407732591   -2.55465638607091   -0.01184612007647
