36
 energy: -47.845907786035 gnorm: 0.138732394380 xtb: 6.4.1 (79825abcba525fcdf90b791dcacef51065a7a4e7)
C         1.76328872253657   -0.13557594117246    0.33993853181354
C         3.19308949178735    0.11466849782636   -0.19297435356171
C         3.45348556509071    1.56136885286054   -0.56979752571597
C         4.10119968247139    1.84912592919587    0.85380791354633
N         3.25150035851979    2.47021512231369    1.86215913685209
C         3.96398094474640    3.70941264753505    2.29143545865900
C         4.15338984170418    3.82493563800751    3.84061341212880
N         4.97957918702785    2.77318653301630    4.45375345418353
C         5.29502910383556    3.60677401955045    1.58277372730061
C         5.36466260574655    2.54576350746776    0.79102912654860
C         6.39865081439955    1.70920837286771    0.17863455007532
C         5.77757880647161    0.29223770254965    0.23627735912824
C         4.36321232375971    0.35551688287693    0.99176745559162
C         4.27593822562367   -1.00858503925592    1.67730817289995
C         4.01027591161048   -1.92084914357442    0.46888365065836
O         3.66853190213072   -1.14057055169456   -0.70312741340379
H         1.50115325991079    0.59381760042607    1.11398709826899
H         1.75234416550553   -1.08237898417220    0.88189035560296
H         0.97963139332755   -0.14785780410937   -0.43180633391018
H         2.50805515972343    2.10168047340165   -0.68825144907678
H         4.17482547660795    1.85800251289547   -1.34465568358794
H         2.26682686363456    2.63011087086281    1.63392928678129
H         3.35753341480089    4.53836418563980    1.91733992045099
H         3.16628808966826    3.84573325487443    4.31636598895282
H         4.71489808367225    4.74819780535170    4.03961642407795
H         5.42109079649774    2.27443371612761    3.67974665453970
H         4.41895936111739    2.08064342400742    4.95533828639003
H         6.10869786043455    4.29375935184517    1.74872563511929
H         7.35752822081235    1.89891209594097    0.67551669807030
H         6.47447280559767    1.89130255536138   -0.89836684937786
H         6.47266131905491   -0.38690262792373    0.75123661046423
H         5.75564035185534   -0.06630660762186   -0.79771428171863
H         3.49651466825270   -1.15205908255603    2.43066501890221
H         5.22820334373124   -1.29534115715748    2.14440809139444
H         3.19957372522911   -2.62951428003425    0.68368497743803
H         4.87354573027484   -2.47638316870204    0.09662270912190
