36
 energy: -47.845178774534 gnorm: 0.145367528186 xtb: 6.4.1 (79825abcba525fcdf90b791dcacef51065a7a4e7)
C         1.78581555577325   -0.03932617613690    0.46319360563059
C         3.12040751120722    0.21094557783891   -0.27652053070819
C         3.39632490754825    1.68527295692404   -0.50667720010113
C         4.09754573158088    1.85587396457698    0.91042364835770
N         3.36048843193722    2.49917908958691    1.99089478454290
C         4.17251845950484    3.63035273837383    2.52808250512800
C         4.16619120092910    3.53895554324189    4.09038212793129
N         4.83268298826617    2.42476521364820    4.78253408163820
C         5.54055590176065    3.40030252967999    1.92810270881265
C         5.38232189573349    2.51384989695942    0.95516112121959
C         6.29836639114831    1.85348173991145    0.02308840558059
C         5.80817845602507    0.38581798263989    0.07346573591608
C         4.38763477978561    0.36384247685584    0.81963918220943
C         4.16974578829332   -1.03941658274699    1.38686504951024
C         3.91685698661322   -1.81223581228157    0.08230008020219
O         3.51927544742403   -0.95400766021942   -1.01524578768614
H         1.83661011303051    0.24416224570221    1.52004522554651
H         1.41122842448341   -1.05506899403387    0.32821742074261
H         1.07386215928965    0.58898599611195   -0.09196939826885
H         2.53286540579153    2.32184909654121   -0.72807079302987
H         4.07348382697552    1.76549550908742   -1.36908550458433
H         2.38524766105585    2.76416262882921    1.82987751252572
H         3.61304084830253    4.50909593982247    2.19689991980061
H         3.10763832078100    3.62122887695809    4.36211695144545
H         4.74259539335130    4.42754884182090    4.38272932402608
H         5.84491267202222    2.50563512823396    4.67471699994212
H         4.46956710388238    1.51994752599579    4.47439499591127
H         6.42178935390856    3.96035715470935    2.19514600798607
H         7.37598257182604    1.98425185358179    0.17790372645973
H         5.97283952596918    2.28793398969334   -0.92776529338778
H         6.50189563851103   -0.16538068712869    0.72499532428082
H         5.81920898168868   -0.02879975610713   -0.93952216420204
H         3.29411504936298   -1.10366463740490    2.03861300980795
H         5.09009390965349   -1.45777099871400    1.81716630647938
H         3.17692414857455   -2.61789682856213    0.17713485709909
H         4.82789860407144   -2.31270853888543   -0.25230603872799
