36
 energy: -47.837171661713 gnorm: 0.140404509652 xtb: 6.4.1 (79825abcba525fcdf90b791dcacef51065a7a4e7)
C         1.76644370797592    0.20734020220760    0.36640754236773
C         3.19257971672302    0.18768138782027   -0.23083468704668
C         3.37140400655291    1.62521676185988   -0.68278342600146
C         4.03994515035403    1.99644603260673    0.71157367323661
N         3.19680950032758    2.59948946104306    1.73625595944547
C         4.05733378658046    3.49975005935680    2.55878015416943
C         4.37827902625888    3.13102123396823    4.04545658887763
N         4.79853115817111    1.73124848749280    4.21495622560310
C         5.34156014110629    3.58317111270930    1.76617122441901
C         5.27146987475209    2.75028637438159    0.73717074485733
C         6.29058915935420    2.02156740692828   -0.02068659243005
C         5.96721429837939    0.54378623199256    0.30863165249124
C         4.45011006615183    0.53497263883145    0.83162225663002
C         4.24942889455244   -0.73773058982869    1.65521828979257
C         3.95891274058547   -1.81692399805831    0.59974018202722
O         3.47707636845533   -1.16954161846399   -0.60357330526403
H         1.46416398785580   -0.81274401709508    0.62705343079801
H         1.02750263010921    0.39562255982674   -0.41383819027079
H         1.67557476062514    0.78166049441468    1.30008780266853
H         2.42087545298629    2.06278134333446   -1.00657247415383
H         4.11327272843923    1.86371567497811   -1.45833292642683
H         2.45814441414542    3.17676197208796    1.32592959133651
H         3.56801145867113    4.47693084203937    2.58261500200951
H         3.41248976897213    3.18090366058403    4.56111710970737
H         5.09909940090044    3.88217934888897    4.39686263144107
H         5.80306845819674    1.56325274808991    4.14109388625673
H         4.23367320405112    1.16142721707744    3.58112888212939
H         6.15276509089892    4.14638285958924    2.19777842631608
H         7.30182462507684    2.34599048545199    0.25221951827339
H         6.14811074388608    2.18759826896427   -1.09352065450709
H         6.68331286677747    0.20494213654731    1.07148277769982
H         5.95674022761562   -0.11094881320890   -0.56851505518656
H         3.49457305450828   -0.68466112466828    2.44452729544756
H         5.15361055543140   -1.12176056286810    2.14735318936990
H         3.15835413914221   -2.51431101261749    0.87963515835976
H         4.82949127146390   -2.42627094314200    0.34830358150075
