36
 energy: -47.842164899580 gnorm: 0.136035641183 xtb: 6.4.1 (79825abcba525fcdf90b791dcacef51065a7a4e7)
C         1.70660323601831    0.03362948962313    0.25121871857083
C         3.15923378807027    0.11285733231873   -0.27274319390946
C         3.46567812190556    1.59424332232260   -0.39245596014093
C         4.11775201418964    1.66044528379146    1.05647712065189
N         3.42785356812772    2.21419294969468    2.21488833065851
C         3.90714199617904    3.61759269429292    2.38302216943467
C         4.06565088022408    4.00247090311992    3.89163653158091
N         5.07788415915370    3.16401001967233    4.55275138588646
C         5.23702683146081    3.58004945933042    1.66578989532631
C         5.36534164150251    2.38630719010747    1.10368108651751
C         6.42780023654631    1.66536513395717    0.39982920250048
C         5.78281909575180    0.28644752748739    0.11797007330840
C         4.37831382418247    0.17000744768175    0.88543911792057
C         4.18690333401360   -1.25919590243597    1.39445451061410
C         4.06787108631444   -1.97705647398151    0.04034978941743
O         3.50817693430633   -1.09608457168317   -0.96457037798087
H         1.42941554715567   -0.97719475450743    0.56946776395820
H         1.01835607276653    0.46422296388603   -0.47759721591760
H         1.64983065367889    0.69735961944161    1.12648952064374
H         2.49066667876082    2.06656305150439   -0.55392852421575
H         4.26554473985845    2.00193712753349   -1.02706379657180
H         2.40523884762473    2.23822600318402    2.18457437455978
H         3.13166996947302    4.30577345385256    2.03670281271380
H         3.11664850599743    4.00433012902934    4.43984630401017
H         4.42926270070606    5.03574335847670    3.80537412012184
H         5.95536397777731    3.10569696999620    4.03371173933183
H         4.66128882900479    2.23121460738539    4.59563422744238
H         5.94817363660162    4.36748400886426    1.85490034646460
H         7.33910293938410    1.60694943029698    1.00682197761810
H         6.80588198878268    2.25186927395175   -0.44391623124014
H         6.56565859363841   -0.42632897837069    0.41573892562601
H         5.68284036650699    0.17901230305510   -0.96675844365559
H         3.27281003869210   -1.36161003298567    1.98570504725339
H         4.98283534670195   -1.81059338903536    1.91375529512802
H         3.46509311260872   -2.89227909791265    0.10824809767677
H         5.02999081821552   -2.32592100238991   -0.34050477534785
