36
 energy: -47.835842624746 gnorm: 0.141777722246 xtb: 6.4.1 (79825abcba525fcdf90b791dcacef51065a7a4e7)
C         2.03507317063713   -0.65978827837926    0.69563087179056
C         3.21947400544169   -0.05122870470367   -0.09037075577069
C         3.20801915679168    1.46382293073559   -0.17540633071724
C         4.13719770580111    1.54643192044274    1.11253509032716
N         3.49538034243257    1.92650421262112    2.36478443182024
C         3.86271082559162    3.34694292667013    2.63853507592189
C         3.84799493728694    3.49702478767411    4.19623610809684
N         4.28323867484409    4.72451625331731    4.88073104667921
C         5.03135533976828    3.51401228530272    1.69472197731991
C         5.20901450138513    2.48535609776413    0.87755902251870
C         6.03831362507173    1.98596794512073   -0.22101170177318
C         5.87602677852607    0.45164539002303   -0.09304187423154
C         4.61094644784461    0.12544831869671    0.83882147075517
C         4.81764284346072   -1.37123450859200    1.07456281806315
C         4.46445987680468   -1.92223952291187   -0.31638913729692
O         3.74184882461042   -0.93584266137521   -1.09362016938324
H         1.09706058554918   -0.32909425771447    0.23665922255879
H         2.06875040073433   -0.38358088287718    1.75054455627080
H         2.06589276787464   -1.75526073982032    0.60155629431941
H         2.25629803021370    1.99505037509937   -0.28417641244389
H         3.84359504448952    1.72562706973966   -1.03344469360354
H         2.52508454845179    1.66060004911607    2.55202344737794
H         3.07363784304697    3.99462724228151    2.24769549416297
H         4.43185247518425    2.65918506947784    4.59407766581760
H         2.77950398181671    3.46371728084458    4.45025268270267
H         3.91896078788917    5.46647077478705    4.28108239266289
H         5.29879810035358    4.81284308306359    4.80113635204970
H         5.60870652334325    4.42278014449724    1.64622137076244
H         7.09553951436187    2.27410747658627   -0.18133458259947
H         5.72073983459643    2.47713542925373   -1.14661456569865
H         6.74808037263405    0.03602409054599    0.43263461754058
H         5.79773364484990   -0.00155196133555   -1.08634765382870
H         4.23326698339694   -1.80166756761220    1.89240427229086
H         5.86093417807323   -1.61360069593947    1.31955684624002
H         3.98706385890690   -2.90516187228254   -0.20896188707915
H         5.37406030082667   -2.14680634156482   -0.87730610943884
