36
 energy: -47.841137560159 gnorm: 0.134924194567 xtb: 6.4.1 (79825abcba525fcdf90b791dcacef51065a7a4e7)
C         1.69420048480372   -0.02052617991144    0.32548070234871
C         3.12615770977773    0.20649581438231   -0.21202103010519
C         3.40741092813679    1.68603722864251   -0.39802503507540
C         4.19039288517649    1.75363952074169    0.98449408006943
N         3.46189510493057    2.23247138715534    2.15262234462034
C         4.03766360572808    3.58480228794621    2.41186912728545
C         4.05675097534778    3.82871945099023    3.95760959570890
N         4.87146978191355    2.87169480346447    4.72249048513868
C         5.41478655831807    3.49173113211698    1.79599958239758
C         5.43041872875041    2.49154343880149    0.92603890671216
C         6.38174992077487    1.70440288189584    0.13904358133595
C         5.76594940516129    0.28762633279345    0.03709842436242
C         4.40281416183230    0.24926842167202    0.88302566600556
C         4.25475231744590   -1.16333697540091    1.44957685428419
C         3.99893276633610   -1.86409793970652    0.10548518120116
O         3.61837895120303   -0.93163361359326   -0.93611100854354
H         1.06981894682254    0.86653347132186    0.17331639192522
H         1.65603347697267   -0.33480216551611    1.36953119561321
H         1.18655797762405   -0.75443570632243   -0.31758668696836
H         2.50238640899446    2.30295685051965   -0.38588555798971
H         4.14727900683959    1.86246398446180   -1.19187434429342
H         2.50420150307803    2.39716939724695    1.83178770488097
H         3.36860160388999    4.31954333007791    1.95645909636466
H         3.07382150296100    3.74852015954234    4.43568973555766
H         4.43005042624259    4.83202021622648    4.20528236634968
H         5.86239293099117    2.86665008854496    4.47587488050910
H         4.54935385996167    1.93186280545834    4.48071572893130
H         6.17847449055001    4.21892553943095    2.01851840119771
H         7.32178318612309    1.55997886045966    0.68475809451356
H         6.60573648819783    2.21559778723502   -0.80294844509702
H         6.47254835041476   -0.46202641643252    0.42218665957376
H         5.44696019207705    0.00280347295848   -0.97052045110986
H         3.34429192035674   -1.27869053585164    2.04404110984779
H         5.11653304381115   -1.55670632939132    2.00618686268520
H         3.16358750953657   -2.57584820770674    0.07093446450010
H         4.92574091541399   -2.18865365297837   -0.37213523403733
