36
 energy: -47.821583040864 gnorm: 0.136084499701 xtb: 6.4.1 (79825abcba525fcdf90b791dcacef51065a7a4e7)
C         2.09870107795368   -0.45917214540516    1.09239573367392
C         3.23490963714493   -0.11029869211337    0.10332239617068
C         3.25059564524827    1.38559906148994   -0.15121162249933
C         4.25822969781307    1.50573055575036    1.07321972475713
N         3.48877054452798    2.10647949231379    2.15559960474859
C         3.91141379582042    3.51858857147702    2.38977445730926
C         4.40005082564759    3.96850708896704    3.80680684074074
N         3.33996575517673    3.59779537733563    4.75733205495467
C         5.01652146522282    3.69716285433316    1.37425806015654
C         5.24209526987496    2.52584875883308    0.79581936339335
C         6.26148454318059    2.06332261638902   -0.14805469163325
C         5.96616102511583    0.55277508615515   -0.31505520450989
C         4.79176293247626    0.13094582421153    0.69393006672038
C         4.99268896245533   -1.35652769976998    0.98617673647736
C         4.10099684045149   -2.06377706234878   -0.04715553172382
O         3.42865002533018   -1.11150905845081   -0.90760250042182
H         1.24855049518875   -0.72310150732734    0.45406478763578
H         1.88915832104803    0.48029510986652    1.60597208587074
H         2.31558681251348   -1.15727391835987    1.91426815661889
H         2.33776995816172    1.99093688976685   -0.16225672905698
H         3.89324275813004    1.55099090161309   -1.02778344786482
H         3.64114680241477    1.58622704284784    3.02356057566061
H         3.15605314134747    4.27170301793903    2.15074386447821
H         4.67126712118763    5.03016482360976    3.82842841309424
H         5.32360406110802    3.48275435216481    4.15090047512956
H         2.40615628436065    3.93390708659569    4.51691119583296
H         3.60106869127193    3.93861944850831    5.68532025399293
H         5.68985225036963    4.53863614920477    1.38395552523775
H         7.18033244736255    2.23659714735082    0.42467534352835
H         6.29816003613453    2.59866635765041   -1.10246615926549
H         6.83960115796250   -0.07876915361582   -0.09640361299317
H         5.77591754568806    0.35694556264372   -1.37507041474390
H         4.61402447303343   -1.69438037575597    1.95473297249970
H         6.01201964557807   -1.76653667638258    0.97735319568333
H         3.29607206009765   -2.57932909814783    0.49310932136349
H         4.66962490606667   -2.76994398270832   -0.65577810906992
