36
 energy: -47.839364969006 gnorm: 0.130349995854 xtb: 6.4.1 (79825abcba525fcdf90b791dcacef51065a7a4e7)
C         1.65576896478016   -0.02556646884940    0.29504223061446
C         3.13167805559122    0.20225198800700   -0.10588140999644
C         3.37628008997237    1.62576557977892   -0.57120132775630
C         4.05935217721353    1.93504901809503    0.83120604323922
N         3.31015986948760    2.47406147902744    1.95934138301528
C         4.10073652405955    3.62555974751015    2.48522875969899
C         4.35360029004558    3.43511175842821    4.01786149155968
N         4.80830826028353    2.07175142543609    4.33281384455999
C         5.38659638824837    3.61215474128050    1.69099324960167
C         5.31297020623359    2.65029206414780    0.78167976740952
C         6.26563034405210    1.94738611700836   -0.07991474410795
C         5.90014388299832    0.50114231222403    0.33440097172973
C         4.41784279151458    0.45977320360142    0.94781287019117
C         4.28887154866117   -0.92285354912198    1.58817725505471
C         3.97069511722821   -1.85018463917381    0.40415323091942
O         3.51751267828302   -1.04208421146438   -0.70977358737434
H         1.25711898457613   -0.21736267309989   -0.70704236080399
H         1.19976941875520    0.87352089315664    0.71214400980556
H         1.53747061391198   -0.87381963773355    0.98521021853301
H         2.49642883928079    2.24253535432391   -0.78395342414955
H         4.08071983739540    1.83346566515964   -1.38934146055841
H         2.36155295914480    2.77347932757887    1.71906804594057
H         3.47982708221722    4.51971063824130    2.38596962376715
H         3.38448026639231    3.49358985897679    4.52631956357703
H         4.95387346519407    4.24049714066840    4.46320769034586
H         5.76643477271960    1.82035035056022    4.08469192683793
H         4.20924571527214    1.42287943379581    3.81746241590496
H         6.32654856407185    4.07093728882419    1.95090516741277
H         7.31711939654625    2.20448766188201    0.09499900160217
H         6.18751593745449    2.20127004709474   -1.14212017254043
H         6.47597634313742    0.24104314250687    1.23457857053751
H         6.08112831500547   -0.22775116570638   -0.46192369001051
H         3.48252585669955   -0.85777871941990    2.32384314010126
H         5.18575524113300   -1.27045535246628    2.11920727844293
H         3.30669262826573   -2.64777329209910    0.76267373799867
H         4.81720439515087   -2.35330971497113   -0.06777710363769
