36
 energy: -47.841686882007 gnorm: 0.142195027448 xtb: 6.4.1 (79825abcba525fcdf90b791dcacef51065a7a4e7)
C         1.77967193072710   -0.08702416668211    0.35761198080405
C         3.17837798813910    0.12495960766104   -0.26659378284234
C         3.42078386619979    1.60088019638388   -0.52279966939315
C         4.04067752733406    1.72350772753807    0.93654409487836
N         3.24628873180299    2.20425140610140    2.06008516125775
C         3.82958509649642    3.53357610495467    2.40675258108713
C         4.09676949036355    3.67904386195091    3.94188290980396
N         5.27048363277579    3.03648117659904    4.55361323114971
C         5.17258698984865    3.54827207428706    1.71353177428101
C         5.25988261166616    2.49709916714574    0.91049608521193
C         6.35246319812033    1.80273399702255    0.22631222013657
C         5.79748006045014    0.38622284607090   -0.06065246971615
C         4.45883071815119    0.26434804822801    0.81591262218284
C         4.38145447634712   -1.06048348247123    1.57564341802626
C         3.87154714112753   -1.89533990784858    0.38985201492868
O         3.61717908065508   -1.12844559999715   -0.81281317344590
H         1.72895255421884   -1.08131916429659    0.81443372891049
H         1.11853361776240   -0.15633245313823   -0.50746607584826
H         1.52957290104376    0.73862259923877    1.03997381117767
H         2.47949952695142    2.15187378075593   -0.62377700686575
H         4.10393571675915    1.99990507236083   -1.28621998870094
H         2.29389209364710    2.29653591686117    1.69723321128529
H         3.18450079809531    4.37038952265265    2.12658084754423
H         3.27798246444077    3.18554070635751    4.47777966788657
H         4.19831120456468    4.75836043839825    4.12096868107497
H         6.06822191966791    3.51019829884896    4.12702313849772
H         5.38473988425706    2.08756615885556    4.19029012262803
H         5.77224521154014    4.42943802034752    1.87322573029745
H         7.25401032892350    1.79420718216822    0.85038370359071
H         6.71646740523412    2.25231358223332   -0.70332120602796
H         6.45139583541388   -0.42803711020702    0.28420857081020
H         5.61177474444837    0.13554504385790   -1.10986557352640
H         3.64948846745649   -0.99896578344025    2.38562715926537
H         5.36111268593744   -1.34821045836688    1.98147977642837
H         2.98654608494994   -2.49032807791094    0.65128288838711
H         4.68454481460272   -2.56858679270198    0.11020146246657
