36
 energy: -47.844216934906 gnorm: 0.120381157256 xtb: 6.4.1 (79825abcba525fcdf90b791dcacef51065a7a4e7)
C         1.72103350890655    0.11144979265264    0.33250000334798
C         3.19437334300170    0.12063587025872   -0.13668440712275
C         3.43809796742385    1.56214305185928   -0.54337726728026
C         4.17364540317090    1.81062218152178    0.84450538373137
N         3.32107536435206    2.40842080221599    1.86444363609605
C         3.98960990731188    3.63946047561773    2.37934181366199
C         4.15469738177893    3.55783294268652    3.93345142578322
N         4.88488312287338    2.37489264623694    4.41530904167588
C         5.31306137113163    3.65486482194082    1.64950329616890
C         5.38785419002735    2.59230685992749    0.86030859897212
C         6.42590196294724    1.88296212668866    0.10979537372832
C         5.88315821511031    0.43311642080273    0.12514713853932
C         4.49116084449465    0.32313308133643    0.91600053853659
C         4.23310258137304   -0.98970988894618    1.65640999794696
C         3.96560194603014   -1.93226430015795    0.47187351575928
O         3.58334953208799   -1.14820856557843   -0.68500732484442
H         1.30825820462090   -0.89907705617052    0.42378614089223
H         1.04147813572732    0.51313447148122   -0.42057468016038
H         1.63892676618534    0.64382276764213    1.29150849587746
H         2.51918192288162    2.14816212332693   -0.65283769496116
H         4.09782057942288    1.80475313247814   -1.38873777376021
H         2.38697722863220    2.64912410296865    1.52274202886212
H         3.38173012799717    4.50255553836422    2.09572972782318
H         3.14503959514549    3.46775071656837    4.35012787829324
H         4.66724596769431    4.48138302909354    4.23619870809455
H         5.78539707225196    2.26148866254796    3.94734797098776
H         4.24426362940872    1.58482011753702    4.31095410093681
H         6.09222363665933    4.28702281587428    2.04298540170791
H         7.39820180957720    2.06262314407000    0.58379978272917
H         6.40948226020644    2.28818853013874   -0.90724013855837
H         6.72356243275345   -0.20798639720405    0.42889416491365
H         5.60649953980811    0.15588340272334   -0.89699564200571
H         3.39997112362207   -0.79161373683442    2.33632344515040
H         5.00617773047374   -1.35594426426388    2.34593698379345
H         3.19356804353285   -2.67067809311545    0.72543345685396
H         4.83787997591492   -2.55392742255160    0.25951287467315
