36
 energy: -47.846154432425 gnorm: 0.145842686257 xtb: 6.4.1 (79825abcba525fcdf90b791dcacef51065a7a4e7)
C         1.78391867728826    0.00919001510723    0.53864457286213
C         3.16135051640253    0.15793712991284   -0.14801726419914
C         3.45368412466990    1.56553780334687   -0.63375909966307
C         4.08919705621939    1.88229856320695    0.78918717837962
N         3.28152852283228    2.60082504905219    1.76689068120836
C         3.97503771505668    3.80045227358884    2.32137852485368
C         4.11501247105052    3.58285659164603    3.86482687003526
N         4.84128613156033    2.33714779253491    4.15713129492520
C         5.31526891954670    3.62382276797199    1.64535510643901
C         5.35920047820827    2.56749858367344    0.84554207771005
C         6.40822109258650    1.72248545499173    0.27152832742438
C         5.84358549688816    0.28425158892434    0.17391168946220
C         4.43173399545906    0.40507068498454    0.92709173145113
C         4.33592389479415   -0.89856862770832    1.72062928076698
C         4.02578652862320   -1.83053130895432    0.53810974509816
O         3.60406242508284   -1.11325611947113   -0.64801784633335
H         1.55506253574051    0.83723567880074    1.21823736767937
H         1.71753858592203   -0.98642245912789    0.97979879492526
H         1.03131737679874   -0.02567749111784   -0.26275128915068
H         2.54287079578672    2.13431041416435   -0.84991513720404
H         4.18564587531978    1.58563524758473   -1.45385424936398
H         2.34999926127250    2.79728586926388    1.39153248591826
H         3.44210618376266    4.69861710628298    1.99862374726209
H         3.08715013185184    3.59330387316014    4.24500154668851
H         4.56908401942662    4.50098653830500    4.26252419286979
H         5.72510994501370    2.25871390337652    3.65168397681901
H         4.24915618042687    1.55512179012766    3.86848732456360
H         6.07728021468544    4.34610326894708    1.88865613751067
H         7.22331230567136    1.68093091764558    1.00380203082004
H         6.85279025327306    2.05576174818508   -0.67193574832593
H         6.37910956441938   -0.50104639986548    0.72715246991714
H         5.79253873712791   -0.05097925168724   -0.86685175563869
H         3.43568851881303   -0.83290048137885    2.33779730061084
H         5.08701942716700   -1.24993993640351    2.44147182468358
H         3.21288347154935   -2.49770213308152    0.85379253975769
H         4.79684656706097   -2.52675233635340    0.20169669712901
