36
 energy: -47.836541675682 gnorm: 0.151011904133 xtb: 6.4.1 (79825abcba525fcdf90b791dcacef51065a7a4e7)
C         1.85624260572236   -0.04690318422335    0.40624648925213
C         3.28094288424491    0.09559827873550   -0.17759517015530
C         3.44800897927636    1.54049008261102   -0.61016920859194
C         4.01385839140680    1.79842015150566    0.85348262247577
N         3.23794064102430    2.49167139486234    1.87420161962703
C         4.02173113596165    3.69774188715311    2.27242727683061
C         4.24839992622489    3.78328811766026    3.81854393106957
N         4.66395219200732    2.54231678674727    4.49086244998155
C         5.37045323788407    3.49908123102869    1.61981103773819
C         5.28181300185164    2.48474918037822    0.77085577865116
C         6.28694210181235    1.79512966506950   -0.04039241191706
C         5.91158246845900    0.33034356624148    0.29182113875072
C         4.46627902861134    0.35082332473978    0.98887253900391
C         4.14070119490856   -0.95410864259795    1.71654589894080
C         4.04870604605227   -1.88400355261802    0.49592129333832
O         3.73275964980684   -1.15635327775429   -0.71648809696353
H         1.75691974546882    0.41393126139792    1.39500717770544
H         1.43846230448791   -1.05418801061544    0.43947985779227
H         1.10609628694464    0.48593623633738   -0.19643289134342
H         2.55286291531837    2.14007731842951   -0.80769210655419
H         4.25535456456194    1.75241307889005   -1.32571773878719
H         2.31435460009214    2.84633065054531    1.61258541713459
H         3.53794265088991    4.63962718456402    2.00097283167136
H         3.38391886045795    4.07144309589547    4.42746274079067
H         5.13724104147413    4.40601399506050    3.99024333144530
H         5.42488544311740    2.09977882350399    3.97325822117277
H         3.98253844666727    1.78146539077437    4.44313037182333
H         6.10996718359509    4.27097171391226    1.75710608890606
H         7.34743868800447    2.00238214291416    0.14593701589899
H         6.07758595912171    2.03354481754243   -1.08832728297132
H         6.48432316623188    0.04754622749950    1.18711330882590
H         6.14637401986865   -0.32276373616379   -0.55464080527071
H         3.21701922182811   -0.86853799769313    2.29544285487171
H         4.86439998054281   -1.40765089568425    2.40776204640041
H         3.23098423274171   -2.58198492293018    0.71893913792661
H         4.96923872398872   -2.40160429072836    0.21818022052553
