36
 energy: -47.849313500126 gnorm: 0.142215651408 xtb: 6.4.1 (79825abcba525fcdf90b791dcacef51065a7a4e7)
C         1.75597322315081    0.17354535063467    0.41817483394681
C         3.19328211840926    0.11439125404831   -0.14891650438522
C         3.46747463641721    1.55845259718901   -0.52607565755201
C         4.09041341303890    1.87151357171827    0.90323544765119
N         3.26444472842735    2.55509110264246    1.89066158456198
C         4.02328869751394    3.75045964233763    2.36264369931631
C         4.28983554372105    3.59390986830551    3.89679445672856
N         4.55313559175673    2.19101261918280    4.25352700179152
C         5.30550220695916    3.69180033933326    1.56457546238302
C         5.33671532958662    2.59621197422294    0.81881177443170
C         6.36708191587656    1.78464921255227    0.16789414261144
C         5.83877754578229    0.33436287430697    0.28799005722672
C         4.39847716328451    0.38308450265430    0.99393841649182
C         4.22588169735824   -0.99405364922138    1.63585598905954
C         4.15519207376903   -1.88965102184693    0.38845854079503
O         3.57928188462484   -1.14766611431521   -0.71472749462568
H         1.48323627345446   -0.79775135471267    0.84488127529274
H         1.06326808559082    0.45586131730685   -0.37600704119984
H         1.64219233848870    0.77575326437198    1.33155281023320
H         2.57038345731622    2.12092046763790   -0.80654658215471
H         4.21626473729881    1.65924287612319   -1.32475122278556
H         2.28378600511973    2.83622810225820    1.80999029604633
H         3.42582433890688    4.64472552475338    2.16716584582783
H         3.45905865205102    3.89543960542583    4.54489359494614
H         5.19392738254704    4.16282505622315    4.15420499322734
H         5.47085778900583    1.86062580173636    3.95119619241145
H         3.98362009501030    1.62887516435902    3.61701190447253
H         6.12135469639723    4.39049924337591    1.65261104937710
H         7.31512716376472    1.81967314140024    0.71772026877252
H         6.51384364171583    2.10065271254010   -0.87010491953780
H         6.53595530299450   -0.22271566857496    0.93076605514104
H         5.81370294319154   -0.10017864536018   -0.71635996130554
H         3.29060644369493   -1.04687681528089    2.19986158651223
H         5.05771250305634   -1.30338779155143    2.28361377634030
H         3.47594267702565   -2.72549441835418    0.60192982300164
H         5.11346925958593   -2.26221705743825    0.02058570662340
