36
 energy: -47.846860581730 gnorm: 0.140087962181 xtb: 6.4.1 (79825abcba525fcdf90b791dcacef51065a7a4e7)
C         1.85274440776703    0.08110186522061    0.59446981945279
C         3.16241711177626    0.13347426278748   -0.22587352046901
C         3.34864718181552    1.60040960671461   -0.56670013975288
C         4.11877077248638    1.83088972026896    0.80544369749186
N         3.24368591636154    2.46157403435514    1.78573786877969
C         3.97341017215036    3.65318251788239    2.31022711638805
C         4.05743061127232    3.64506244227075    3.87293253879369
N         4.82083318657328    2.53473785129996    4.46378068482142
C         5.34776251565791    3.55449028289912    1.68906626850725
C         5.39838459139637    2.49437105291184    0.89468837023303
C         6.42763629699309    1.75488377609979    0.16135168512263
C         5.92554714855579    0.29116660470607    0.20928430324194
C         4.44957217579845    0.34490963328476    0.83682844307208
C         4.28042195511995   -0.98565074921176    1.57123576877181
C         3.98431230571349   -1.89296904848040    0.36616952744950
O         3.55269103096778   -1.12935425310010   -0.78701263339077
H         1.63798396294165   -0.86654054675584    1.10017025669142
H         1.08476662384483    0.32349510167542   -0.14154866176050
H         1.74595365305143    0.85008738633303    1.37364681630540
H         2.44060207613871    2.18516295226442   -0.74924942502340
H         4.02096646807681    1.89575318538902   -1.38492193218794
H         2.32239173940594    2.54294904719763    1.34775095613039
H         3.45084098219386    4.57779791645954    2.05158734762759
H         3.04597062052441    3.58291720168635    4.29034070315711
H         4.52137735989553    4.58842145910361    4.19251650383160
H         5.78764983886724    2.73544288585888    4.20347999580351
H         4.44651359122493    1.64913980779959    4.11578810530709
H         6.20693217240305    4.18807939153213    1.83718128938147
H         7.36803438706811    1.81215923499891    0.72232957546391
H         6.61194225956570    2.20644616291638   -0.81893500715680
H         6.57101035901328   -0.25810043241113    0.91016751660790
H         5.85252531735660   -0.21686093028803   -0.75754032705773
H         3.46550823416071   -0.99496331383479    2.30024969622242
H         5.14989057940909   -1.37135797091366    2.12121258966537
H         3.11784945149560   -2.52345365484947    0.60557545282831
H         4.78592329014802   -2.57195967273132    0.06813832331536
