36
 energy: -47.847102925215 gnorm: 0.131198905079 xtb: 6.4.1 (79825abcba525fcdf90b791dcacef51065a7a4e7)
C         1.70184954991949   -0.07486411249239    0.50233198009734
C         3.09726769475237    0.09551355620435   -0.14166198153185
C         3.38635843991664    1.53986579229704   -0.50637675142511
C         4.11768792077326    1.79882734519773    0.88181857328577
N         3.36721005461558    2.45387300874749    1.94587248729467
C         4.06461048725331    3.74724068742021    2.20731061159844
C         4.17337558516650    3.94870667963231    3.75545633020938
N         4.59563030391159    2.71240872069826    4.43219410655076
C         5.44933039486580    3.57931033540407    1.62526643366010
C         5.39594071853112    2.47062147868407    0.90041465855830
C         6.50880146939435    1.68253737595040    0.36707845712256
C         5.83050947363500    0.34405122565234   -0.01401699018696
C         4.45992342802365    0.31638667327291    0.82020752110821
C         4.36938632073223   -1.01350768782043    1.56956759901102
C         4.07056859499566   -1.93905822444516    0.37912390143009
O         3.49137640852614   -1.16678127457926   -0.70131965349066
H         1.39737299399034    0.82758664026807    1.04340293442461
H         1.64420005130925   -1.00528152309218    1.06913664785888
H         0.91930693373092   -0.20607116514665   -0.25942358626341
H         2.44557648788599    2.09076466972292   -0.61242535543094
H         4.06075778484007    1.72431260663442   -1.35484170778291
H         2.34551758685935    2.49155538175199    1.90157884023415
H         3.40635268246647    4.55817477019468    1.88486794751706
H         3.19865605446533    4.15343348371041    4.21278737403282
H         4.74577175208462    4.85102959291592    4.01135223232031
H         5.56927436120841    2.43304906185838    4.30277684390574
H         3.95396876179939    2.00434428827694    4.06830798117871
H         6.34261866437064    4.10616105591425    1.91854113750617
H         7.29083384083867    1.53433521544449    1.12125794287437
H         6.95868901633545    2.18033820860920   -0.49815836815402
H         6.38401283012299   -0.53536835466141    0.34627389695909
H         5.53598379292537    0.22944605708956   -1.06201235273559
H         3.50879750065854   -1.00856664385320    2.24410065918370
H         5.27049246210586   -1.34705270508782    2.10246128565711
H         3.40914630932644   -2.74475794826070    0.72401868343255
H         4.95213866366827   -2.41919571494710   -0.05068212493406
