36
 energy: -47.835035120405 gnorm: 0.154369533898 xtb: 6.4.1 (79825abcba525fcdf90b791dcacef51065a7a4e7)
C         1.82016373978721    0.14873088014603    0.67266457290831
C         3.19852922884459    0.19744363008522   -0.02639500757973
C         3.35698229634572    1.62182432781657   -0.52516948138876
C         4.17187911364992    1.92837970997834    0.80560364886381
N         3.25956672352362    2.60742560109399    1.71724813719096
C         4.03216048212424    3.72988001566658    2.32610953854380
C         4.12475731042194    3.32557602600315    3.83512833048591
N         4.32265548430116    1.88265663440664    4.04375637196880
C         5.36566895972769    3.68206277164190    1.61625464108520
C         5.42946675432596    2.63833684371750    0.80138185199301
C         6.45563471696284    1.81492837673649    0.15876141820189
C         5.92233253211942    0.36184363486862    0.12725696604372
C         4.54596459738952    0.45911911509240    0.94661701400837
C         4.32338262895793   -0.83083085958437    1.73708725201388
C         4.17272762111632   -1.79066912544006    0.54582504655730
O         3.52104587802727   -1.10060498201705   -0.54886941293079
H         1.61159700477686   -0.75894756063314    1.24929347085000
H         1.15248923516113    0.10738845777907   -0.18917596995529
H         1.70050057538407    1.06140993566264    1.27479201468690
H         2.48986578916722    2.24572441298500   -0.76737658697099
H         3.92765875105793    1.65718595524225   -1.46421468756427
H         2.35118707916411    2.96392192623289    1.40903686011209
H         3.54676670277161    4.70926381694624    2.31678349285371
H         3.19345907752408    3.49227209243881    4.38833619583330
H         4.95217695508177    3.88443187656303    4.29378244834915
H         5.24739250322615    1.66205932088525    3.67096733030629
H         3.72355560020819    1.32138514826201    3.43420609754904
H         6.15534732906590    4.38095241500355    1.83875646657333
H         7.40004244364194    1.89302612979228    0.71041351351419
H         6.61928690530739    2.11299506442980   -0.88201400729186
H         6.71518500082240   -0.30602109395789    0.49453886380353
H         5.74265345011382   -0.04005027216994   -0.87492602726938
H         3.48559639422882   -0.86102148506426    2.43910944722879
H         5.22722234615598   -1.09349319361387    2.30392277837249
H         3.44280851848374   -2.49110696308629    0.97266090713996
H         4.98589586668492   -2.29510859997577    0.01977442147275
