36
 energy: -47.846375001443 gnorm: 0.133614911948 xtb: 6.4.1 (79825abcba525fcdf90b791dcacef51065a7a4e7)
C         1.80559265401104    0.21023566889753    0.56706493981134
C         3.16075610675153    0.19297441179873   -0.17736950533538
C         3.43578680566868    1.65023740556079   -0.49906240297534
C         4.08662488549750    1.78833082178355    0.94535093565079
N         3.29721248555400    2.29401010633756    2.06142848894773
C         3.89280801266820    3.62098981244320    2.39595492876861
C         4.18359242201892    3.65008183166475    3.93341113589138
N         4.90281974080517    2.42557345398517    4.31811489871865
C         5.16941260739562    3.66316364928963    1.58791579787822
C         5.34080169339448    2.50395016781196    0.96799544170009
C         6.42063676911486    1.69214375419916    0.40327472955871
C         5.83339082332792    0.33819486576860   -0.06451099021897
C         4.50134557690985    0.32773885000352    0.83033425392005
C         4.30901113329456   -1.03474137815242    1.49742617476338
C         3.97306364356863   -1.88955016447567    0.26473269970959
O         3.51817132381028   -1.04131821781812   -0.81823040149037
H         1.19688186236123    1.10649338936079    0.40558933349649
H         1.98193227629754    0.03214578532481    1.62888219170140
H         1.21887572244420   -0.65944636502733    0.23649547218335
H         2.56145496713124    2.26819548622804   -0.73031593853793
H         4.17113970795236    1.85954936620645   -1.28910828760921
H         2.36332092281601    2.44750872778116    1.67217015373301
H         3.21330757128075    4.45087166607897    2.18509498846230
H         3.21291838089769    3.69308418518351    4.44044722993550
H         4.76353425850933    4.55916847813601    4.14444583229429
H         5.86362646992436    2.43439526876811    3.97236065210835
H         4.44539361357869    1.62360029094196    3.87868541793281
H         5.93385705947063    4.41832340581225    1.67100620417239
H         7.07132329824360    1.45080633170716    1.25220844859152
H         6.94363022176768    2.24907715813137   -0.38103530151454
H         6.51224337794534   -0.49120102001393    0.18209785771123
H         5.55590427211100    0.36357017393929   -1.12306248789629
H         3.53501647853430   -1.13867615030745    2.26277716968475
H         5.28516716787238   -1.33299832555383    1.90409847271093
H         3.22311903351149   -2.66617140778296    0.46479872003144
H         4.88881430969913   -2.34264199933957   -0.12067555039845
