36
 energy: -47.838444455152 gnorm: 0.137117451728 xtb: 6.4.1 (79825abcba525fcdf90b791dcacef51065a7a4e7)
C         1.88013939491251    0.07285479961428    0.63719405119736
C         3.18440966720945    0.11921919647312   -0.19206951177926
C         3.42478567325016    1.58908607012749   -0.48268004094892
C         4.21905120471696    1.75889962923931    0.88454187252912
N         3.54479964581978    2.24984634102415    2.07989497170788
C         4.00013855338752    3.65144742113339    2.31589946834589
C         4.04668566285494    3.95113764142794    3.85121466369531
N         4.47966682975419    2.76687682309325    4.60934350683615
C         5.33308435166208    3.62223192989553    1.60398144161466
C         5.43735887466728    2.53375726582979    0.85444734465811
C         6.42786250681250    1.76996128331169    0.09319740941497
C         6.01354758631894    0.28403658303684    0.22446031059647
C         4.52234812267711    0.26825538212886    0.81714674156105
C         4.25611056992991   -1.11742388488080    1.40652556155640
C         3.87496926322137   -1.96980862158759    0.18535250118431
O         3.41841735044875   -1.11342154029399   -0.89047048538961
H         1.62995420209439   -0.91376061640074    1.04201316187445
H         1.09442530833874    0.39915619814527   -0.04577617853777
H         1.99273774214089    0.73697081192810    1.50675217082470
H         2.51286600140740    2.19494288963152   -0.51654234339066
H         4.08008299776222    1.80607297950022   -1.33838446155573
H         2.54727460688036    2.23031535167282    1.85229945778236
H         3.39075192239335    4.38615898704810    1.78323299636568
H         3.03248971713744    4.27729655436187    4.10844970654049
H         4.76710312035255    4.71487104377257    4.17527748238974
H         5.46596361802847    2.51488197705202    4.52877897884917
H         3.94452545516746    1.94073463456752    4.33255715738607
H         6.17751651145515    4.28625140762763    1.69091923902435
H         7.42317503360438    2.03375492908607    0.47014718360603
H         6.51336207911935    1.92728374145372   -0.98697792408509
H         6.61224435726213   -0.27264532864761    0.96013805485776
H         6.00645706260319   -0.22942705948105   -0.74222414949889
H         3.48357416107559   -1.00527773404673    2.17219072254605
H         5.10411266858905   -1.59053692612252    1.92060410275265
H         3.04332716685802   -2.62512969593911    0.47605790149098
H         4.60892517138106   -2.69757532410460   -0.16691925853349
