36
 energy: -47.847372470428 gnorm: 0.135442590429 xtb: 6.4.1 (79825abcba525fcdf90b791dcacef51065a7a4e7)
C         1.78078115163116   -0.05533064780408    0.37705769789883
C         3.17353374477708    0.22916800674290   -0.23142347274188
C         3.35412673601829    1.71486336406096   -0.48210084484908
C         4.02876682061135    1.84769087131882    0.95184738792616
N         3.20954268360946    2.50917452929260    1.95972822452963
C         4.07528413957498    3.62531827430893    2.44163276598156
C         4.27145853246392    3.49967652352518    3.98918026521745
N         4.96034111196585    2.25761687021453    4.37315200076798
C         5.39859703565660    3.50450661533392    1.72144342340757
C         5.28792251251454    2.54184903017911    0.81673744916855
C         6.24773473858366    1.84166277884978   -0.03911455281737
C         5.83054930831314    0.38893117185014    0.29612578675072
C         4.36490169376233    0.36257913307940    0.94910706290723
C         4.10306461164230   -0.99269347217646    1.60716031670787
C         4.04517031196155   -1.80530272533331    0.30354746942774
O         3.69780914796863   -0.96784013649119   -0.82659862050299
H         1.03625551100534    0.46884740686056   -0.23187583572753
H         1.75354302826029    0.32546799008076    1.39907434891358
H         1.43153062975186   -1.09109919778262    0.25430851871865
H         2.42698606521471    2.27271780767823   -0.65243922494457
H         4.09176437760332    1.90902477076653   -1.27388361814599
H         2.31386750552090    2.78079002297602    1.54593078206706
H         3.69517734330148    4.62841939749760    2.23140998471989
H         3.30260660460413    3.62305664900000    4.48641881976407
H         4.86676892062004    4.30578079479532    4.43985548223931
H         5.85519803667422    2.25680591312043    3.88121316302650
H         4.42604291507106    1.40886447387498    4.17404728008851
H         6.10402008476829    4.30066812085458    1.89479500911677
H         7.27808567824810    2.03962791153171    0.27949479147744
H         6.14728849707658    2.10493468845968   -1.09714935785506
H         6.54497577974787    0.00197571663115    1.03735082561885
H         6.00942358775353   -0.21811181629462   -0.59700173730458
H         3.19195561336572   -0.98247521760017    2.21165044171740
H         4.97509805724799   -1.30799256733940    2.19653653832277
H         3.33971918518389   -2.63187853405326    0.46069401658749
H         4.99139949547477   -2.29645644011930    0.06722273752567
