36
 energy: -47.846473436169 gnorm: 0.140783607607 xtb: 6.4.1 (79825abcba525fcdf90b791dcacef51065a7a4e7)
C         1.77709995127537   -0.00240753007148    0.35547709881553
C         3.20052435354374    0.17335688589867   -0.22237971998810
C         3.42275928143901    1.66403585000793   -0.39910436131335
C         4.20628469788220    1.75533049825062    0.98174442050879
N         3.46627286932162    2.32545912046953    2.10060488544887
C         4.06005783353897    3.67446133021989    2.33540200517033
C         4.07632749671698    3.84745566038903    3.89070964871682
N         4.63462594305504    2.75041910693612    4.69663729170636
C         5.42210661479033    3.60258525919680    1.68418600866802
C         5.45765042998885    2.47619746496777    0.98601781468733
C         6.37080291531935    1.74062147868653    0.10905502510762
C         5.86357898428027    0.27789110947504    0.10739053329995
C         4.46170891439115    0.25715039717362    0.88811597939195
C         4.32872639586471   -1.15426489619390    1.46133444058861
C         3.89036021084716   -1.93981062942064    0.21480122055215
O         3.50681413197306   -1.06760125847757   -0.87670086399225
H         1.73457726797960   -0.99202010082068    0.82317347840630
H         1.08339197069814    0.13067745339602   -0.47598257492453
H         1.56114584094088    0.78012576788953    1.09768006956560
H         2.48334178923124    2.22593679852856   -0.35949717462035
H         3.82780916192299    1.95733937657643   -1.37820374668064
H         2.47640809971533    2.43585060910323    1.86561797608870
H         3.42548579086735    4.49014512096217    1.97922087127459
H         3.04093008096711    3.88585594219890    4.24794980319746
H         4.52095297242711    4.80693594542126    4.18905927849068
H         5.65487987117097    2.71810981709181    4.66815165388900
H         4.31710347581194    1.87870498139685    4.26676305956971
H         6.15122626310007    4.37158829414791    1.88056473702204
H         7.44024392814523    1.73687551307820    0.35114415169406
H         6.32726752863383    2.14487993105129   -0.90756636587834
H         6.45311030288712   -0.44211349293864    0.69356500736001
H         5.83083064658916    0.01536831383069   -0.95476923002476
H         3.62853513654495   -1.33258562786330    2.28204531266659
H         5.31734234095333   -1.51786474756739    1.77383070562463
H         3.05709540582289   -2.62424504950836    0.42169058155615
H         4.72570728178593   -2.46205447860256   -0.25624832237842
