36
 energy: -47.842302505016 gnorm: 0.128885297726 xtb: 6.4.1 (79825abcba525fcdf90b791dcacef51065a7a4e7)
C         1.71578023007756   -0.04711908577530    0.45157482555493
C         3.17468855339383    0.10361192543767   -0.03813459447203
C         3.39133255591185    1.55341402428857   -0.43041377693297
C         4.17392385719457    1.75753790172917    0.93884675730260
N         3.39343831489209    2.47256013635326    1.94089386099833
C         3.99109842829039    3.82033469131028    2.17289247965793
C         4.23542493876508    3.95508329252007    3.71280188125559
N         4.50161181604001    2.66112307030048    4.36050335830858
C         5.30662940449982    3.70850301892728    1.43716343235541
C         5.41799129951626    2.49081072518411    0.92503492236380
C         6.39120780195924    1.69118120246563    0.17842562304006
C         5.91709847178993    0.22266058000281    0.30303107151914
C         4.47846900352275    0.26745114149882    1.01263739106026
C         4.38135472193775   -1.12356708965753    1.64032677411647
C         4.07348291766105   -1.93162147870949    0.36936056027090
O         3.56826686290412   -1.10429511814983   -0.70745019551926
H         1.60279006437102   -1.08988938922865    0.76739824824747
H         0.99423462217166    0.19488651028264   -0.33013662217494
H         1.50536721918461    0.56820001315670    1.33868730809605
H         2.44130652101252    2.09640948045898   -0.38129057932930
H         3.95412176810885    1.70801322103114   -1.36213012245497
H         2.42037258715631    2.45116646871877    1.62478821339538
H         3.31844222254622    4.58953355182015    1.78462265023816
H         3.33463273168791    4.34325995713342    4.20171413603050
H         5.16474704540112    4.51245634031318    3.89446760694602
H         5.45340707129407    2.42566390791550    4.07516465996078
H         3.84294429559524    1.92849407270959    4.08680692350541
H         6.00896181242714    4.52219635874252    1.51576400700612
H         7.36726971107977    1.80627948111096    0.66461567912801
H         6.28551520042723    1.95476319080453   -0.87902076899809
H         6.50734015655684   -0.34932365116774    1.03378622928226
H         5.92526065122828   -0.17117064091390   -0.71824478399811
H         3.52423524700096   -1.06192566520937    2.31647685413202
H         5.25714867676910   -1.47539548661375    2.20284074922670
H         3.30158028614595   -2.68478644499134    0.57549831450508
H         4.99094195407855   -2.40425593526311    0.01254601395985
