36
 energy: -47.841011519956 gnorm: 0.143879904440 xtb: 6.4.1 (79825abcba525fcdf90b791dcacef51065a7a4e7)
C         1.84726098219842    0.08478063789204    0.69020194014344
C         3.14566074028694    0.13084909714435   -0.14823972224606
C         3.45874112733957    1.54880112173191   -0.58884890288508
C         4.12504832765298    1.77433739342760    0.83739029761018
N         3.36824010486501    2.43769534111650    1.89176711082330
C         4.02362534384341    3.72556933095165    2.26508738150776
C         3.91639445726184    3.85147863473852    3.82130780568333
N         4.45744752551891    2.70019236212805    4.56056907214473
C         5.37131933237034    3.50358984220809    1.61788465530272
C         5.39407831076635    2.46249042532797    0.79749104363839
C         6.50258800479133    1.73763013243249    0.17317778340939
C         5.93776132624263    0.29661225167211    0.13715961000112
C         4.49591473888469    0.29751934009906    0.84163083051850
C         4.37657752339980   -1.06420740187435    1.52706193283009
C         3.94558426260684   -1.96069261158037    0.35503328069378
O         3.44478531879633   -1.14590747724043   -0.73334127951214
H         1.99584420999616    0.22277312813626    1.76666012272801
H         1.35794086321336   -0.88082569321842    0.55441608619501
H         1.22670900478925    0.89177473798467    0.27362595219683
H         2.57574364572309    2.12054466609389   -0.89418708253562
H         4.29147407062909    1.57822435303808   -1.30607834396072
H         2.43476429805020    2.61960141252571    1.51391728328849
H         3.43331274382428    4.58201551258881    1.92905508266757
H         2.85541964658663    3.98274273599830    4.06264804454738
H         4.55291620335228    4.69461290497338    4.12341937895774
H         5.45539804067372    2.89447988876637    4.65607051507146
H         4.35942901976331    1.89411705355893    3.93917317655661
H         6.22801044561793    4.11168394640955    1.85839999254561
H         7.46736691159888    1.56976737388217    0.66648196531309
H         6.75387457283763    2.06395116080117   -0.84132156866296
H         6.53459985384709   -0.43337325119275    0.70325082034169
H         5.77229631393217   -0.06180718934708   -0.88378645472682
H         3.65992526395682   -1.17709563132710    2.34516840833692
H         5.36194345563884   -1.26288708141399    1.97068408794837
H         3.20559898440937   -2.65636851269642    0.77221519155914
H         4.73891788754873   -2.49885431106199   -0.16787664018259
