36
 energy: -47.835930023881 gnorm: 0.138797494725 xtb: 6.4.1 (79825abcba525fcdf90b791dcacef51065a7a4e7)
C         1.68459984940434    0.00078284652582    0.43921509759848
C         3.12464236453264    0.11466694426672   -0.11237946340153
C         3.39378160128980    1.54147864813485   -0.55341925512650
C         4.03375945859783    1.83967210088749    0.87153650744585
N         3.26009418532191    2.51080204856783    1.90861857990524
C         4.05529513623152    3.72016848296359    2.27276879540582
C         4.28922329844419    3.73471296113479    3.82010184590159
N         4.46487896595897    2.45703067417646    4.52818287151393
C         5.37302624162907    3.51094459239822    1.56267355462565
C         5.32716827570712    2.46927771891267    0.74396814802796
C         6.43394241086575    1.75637715006800    0.10302608913319
C         5.86251946761704    0.32080849275588    0.20037768356849
C         4.42878659066308    0.36991027423293    0.91954453111264
C         4.33776730948258   -0.93203239734309    1.71642428572020
C         4.20941116733943   -1.82156420844838    0.46928762086091
O         3.60548573570677   -1.12709135260471   -0.64973654057245
H         1.38790586188751    0.75439289602688    1.17672826829379
H         1.44785600671648   -0.97964200710313    0.85513216694741
H         0.94079149082267    0.08272401578469   -0.36694527476669
H         2.48493682976249    2.13751228839917   -0.68962370352722
H         4.16308234246497    1.73740372804221   -1.31402272156338
H         2.34708837985579    2.57741655486379    1.45121259828490
H         3.60507317263459    4.67887446550822    2.00245477063710
H         3.49849650423340    4.27012820455602    4.35789785302461
H         5.20091841123287    4.34798488530085    3.81606738492234
H         5.30854333829045    2.03561241826439    4.13650638050235
H         3.62659227105896    1.94067768399671    4.25222473925241
H         6.17054445173819    4.23492069663572    1.59967215462892
H         7.39933986168418    1.73218601621827    0.62239850788942
H         6.56144336094279    2.06728504912371   -0.93904827377509
H         6.60293607088391   -0.30279864984003    0.72234669135084
H         5.69766506716656   -0.15424019084093   -0.77190095412007
H         3.45583546683655   -0.98502136437710    2.36064530486159
H         5.26284067423921   -1.16068670168337    2.26339471979568
H         3.59905631212859   -2.70894411865418    0.68284731366128
H         5.17028929188514   -2.24046380520909    0.16323635907817
