36
 energy: -47.840467117497 gnorm: 0.140544949338 xtb: 6.4.1 (79825abcba525fcdf90b791dcacef51065a7a4e7)
C         1.82671605013745    0.13948693069120    0.64372196859574
C         3.15545266171952    0.19716373318453   -0.14499915267887
C         3.44448088517821    1.64468471283571   -0.49697837120439
C         4.21499039843463    1.73197661182924    0.89143264258949
N         3.46823169019020    2.31987374244991    1.99653037611924
C         4.06963830909732    3.65534725767854    2.28347580454392
C         3.94530893879507    3.83860268139501    3.83271211856138
N         4.52997351098867    2.68010213886864    4.52607314757600
C         5.45567053986458    3.55077244024305    1.68983961306615
C         5.43264981467043    2.50817620363722    0.87135655473274
C         6.44878031963734    1.76488449379972    0.12370744857399
C         5.92637667537968    0.31936195120767   -0.06181315892375
C         4.56077905793114    0.25339297034523    0.77842082605037
C         4.39853978533417   -1.08361989851659    1.50259731068742
C         3.88524255973302   -1.95767657737176    0.34689714383594
O         3.37104670232400   -1.10657288103814   -0.70688588185924
H         1.87194637202458   -0.77190728073064    1.24968889855893
H         1.06776343284802    0.01194513547441   -0.12957717770054
H         1.49920025884114    1.01874906936577    1.21773527356393
H         2.56692095024314    2.28384207923825   -0.64248778238111
H         4.15067535055987    1.96890600101676   -1.27473015283595
H         2.49359670638636    2.01674082648802    2.07024875389371
H         3.50989773665155    4.47510408252287    1.82568120504837
H         2.92501279760356    3.96984739961201    4.21075113805682
H         4.48812907513440    4.71286524254846    4.21783285056967
H         5.42110911494291    2.60568970640307    4.03300771581959
H         3.96752455706231    1.85360623851482    4.31147215700272
H         6.30869326690240    4.15326631840688    1.95610818314399
H         7.43160863504763    1.76613243293750    0.60988859909295
H         6.61124101268963    2.14260526415859   -0.89106974117829
H         6.59876538710388   -0.43417642939807    0.37364934564054
H         5.75078798310322    0.05310116267080   -1.10892718217386
H         3.59141019653746   -0.95702844649212    2.22933575706811
H         5.26535214575702   -1.52792530270757    2.01097631431563
H         3.09870714857624   -2.65905538869017    0.65514007413473
H         4.66117024345365   -2.62349336277300   -0.03658069541224
