36
 energy: -47.844880172745 gnorm: 0.152828174030 xtb: 6.4.1 (79825abcba525fcdf90b791dcacef51065a7a4e7)
C         1.77083671002382   -0.09839675624684    0.41279775815507
C         3.18856162811604    0.05998093851293   -0.18379357570335
C         3.35334387831498    1.53214379606285   -0.51292435417210
C         4.05373517183645    1.82589481237667    0.88427017314492
N         3.22033894756386    2.50609274214495    1.86778144872068
C         3.91504933443147    3.72367634229121    2.38001665272813
C         4.08291828081430    3.59386687808111    3.93054660357825
N         5.21873298455493    2.76561164155112    4.36485518298725
C         5.27897612519183    3.55266918355449    1.75161742428419
C         5.29150098150366    2.56956076561941    0.86235221291324
C         6.26559822545588    1.80877046355730    0.07729431687360
C         5.76046094555128    0.34654404948212    0.13720476044312
C         4.38545423426249    0.34195902270755    0.96457264467979
C         4.28134427316895   -1.03066473122898    1.63047207118855
C         4.05935125151389   -1.98228745361598    0.44378534545742
O         3.68597792503765   -1.18215140126032   -0.70495668003073
H         1.42475418382715   -1.13422210141043    0.49749641023422
H         1.23849410479456    0.38629279219004   -0.40693082730337
H         1.68714147527997    0.51706640213605    1.32057526237217
H         2.41234469924864    2.04421315006545   -0.74120523957281
H         4.01419550718305    1.80496274174384   -1.34813266008023
H         2.34187523984536    2.81347452679950    1.44227546147335
H         3.35445332835683    4.64181254547013    2.18599407075951
H         3.16817679205632    3.05537292780662    4.20333808233797
H         4.04395469351316    4.54149930608254    4.48532706024577
H         6.08416462242032    3.30599472322621    4.32257511167485
H         5.35823692804390    2.00296388809154    3.69821814270186
H         6.10813458381883    4.12096104853121    2.14031568396815
H         7.27863375537525    1.97456656153096    0.46277573165624
H         6.28549925559726    2.14570446400730   -0.96429999321993
H         6.50702843775096   -0.24786255762526    0.68389670517626
H         5.53795553051089   -0.08727827233848   -0.84282767237473
H         3.42279825250862   -1.10548959056359    2.30347458696873
H         5.18864419561422   -1.21311219798464    2.22270516051934
H         3.28480037069071   -2.74393393210441    0.60362744610440
H         4.97015284934219   -2.45600961383616    0.07168481099323
