36
 energy: -47.837675258082 gnorm: 0.148991098840 xtb: 6.4.1 (79825abcba525fcdf90b791dcacef51065a7a4e7)
C         1.76293227068478    0.09243666975127    0.46442911252945
C         3.21297738262493    0.10687088505514   -0.07232919891826
C         3.44859304949045    1.49974307792027   -0.62652775490783
C         4.08952913879547    1.94548725438150    0.75893361955829
N         3.25059565448119    2.69096076353801    1.68897274627920
C         4.02478767067618    3.73719300915293    2.41941238506571
C         4.11619164554849    3.30779557562559    3.92155644625365
N         4.65821548109505    1.96041819743872    4.15711978866406
C         5.34433432423363    3.64926221770449    1.68764046496538
C         5.34868420525021    2.65036115522335    0.81607326214211
C         6.36904177384914    1.89587265573161    0.08559344925048
C         5.84374868207338    0.44004392745750    0.04700723599529
C         4.50647153074815    0.49133694226113    0.93259232756975
C         4.40979652428297   -0.79552567332766    1.75295532828170
C         3.99220841991313   -1.83738499829479    0.70260233691194
O         3.57491596659778   -1.20444160000214   -0.53209732101405
H         1.43909877483142   -0.82221295959111    0.97278828231597
H         1.21492472995010    0.34383022171774   -0.44483244474506
H         1.61003964363374    0.96511280088183    1.11628799593933
H         2.58901694835469    2.15491151885064   -0.80454423781636
H         4.17649085447855    1.58190085324330   -1.44637093995675
H         2.42356277263569    3.07859246151658    1.22745819814197
H         3.60597412222828    4.74271051042754    2.32767089431835
H         3.08539136474607    3.30439204614814    4.29382263995536
H         4.70938976835801    3.92305664501858    4.61211892873301
H         5.63235068198381    2.06400622229785    3.86884295900737
H         4.21962177212832    1.21986885092496    3.60510519177901
H         6.20129222083400    4.27771229860780    1.86713805944055
H         7.32226059070554    1.81414100354858    0.62133505968307
H         6.45455849636998    2.28131360743549   -0.93566138804503
H         6.55154098092538   -0.28887728050357    0.46802773005857
H         5.53942922085656    0.04501986358279   -0.92742577325110
H         3.50631076773951   -0.67012274714407    2.35596444718078
H         5.15377157966892   -1.25047210943953    2.42134528701909
H         3.33171284537178   -2.61493125175715    1.10849806355117
H         4.89713733450341   -2.34348823879254    0.35997395598009
