36
 energy: -47.840686166407 gnorm: 0.138996964931 xtb: 6.4.1 (79825abcba525fcdf90b791dcacef51065a7a4e7)
C         1.77131230278130    0.00918580535002    0.45956665452254
C         3.18749841853707    0.11525415127044   -0.15208274412383
C         3.46901028664416    1.57550200385474   -0.45402800411497
C         4.11683957038353    1.76726190464445    0.98560225425298
N         3.30931439665692    2.36922073578526    2.03919670291886
C         3.89821570845727    3.73282758155117    2.18510330351755
C         4.19680630643202    3.87230137072531    3.71499357206445
N         4.93420970957554    2.74498466842258    4.30668518327009
C         5.22603796501832    3.68545374215045    1.46463891025770
C         5.37296288824255    2.47816493493289    0.93708021979167
C         6.39881736543779    1.68929734889671    0.25203025268205
C         5.89849749435462    0.23168873194975    0.40007088218919
C         4.40854244510165    0.27281274256941    0.99466710965688
C         4.20335746511639   -1.09765490190120    1.64125363457952
C         4.03951968186751   -1.91532517540035    0.34987278218291
O         3.59763940073103   -1.11296791999575   -0.77271271573454
H         1.53032465628651   -0.89542061559604    1.02833135453183
H         1.06179136542909    0.05521467926971   -0.36791684008538
H         1.37824885083578    0.85103966952112    1.04833058690736
H         2.66964445250045    2.23788589516987   -0.80341089650171
H         4.32581999264004    1.66182674007452   -1.13751397551333
H         2.35093884261813    2.39986794149091    1.68168533766823
H         3.40242165246774    4.64547142942057    1.84428646251765
H         3.17603094182992    4.02864697372289    4.08203118120721
H         4.78940860007759    4.78317588373654    3.87758770844089
H         5.32213782054532    2.23194102040390    3.51354497462432
H         4.17182804050074    2.11653728515389    4.56998342216289
H         5.88186748022044    4.53778803634035    1.39421527268499
H         7.35878302289480    1.80956925037280    0.76809785504964
H         6.48976098128057    1.91198896289539   -0.81613494788677
H         6.52150333383772   -0.35058356206400    1.09460451106098
H         5.93648237506476   -0.32306443992167   -0.54278649809342
H         3.35674944253945   -1.14647315494392    2.33154629830966
H         5.12875692025136   -1.38335011141377    2.16013153565143
H         3.37413127310370   -2.78158307360487    0.46140490605888
H         5.02069147410859   -2.26833852350529    0.02565910513980
