36
 energy: -47.840949298429 gnorm: 0.135584753162 xtb: 6.4.1 (79825abcba525fcdf90b791dcacef51065a7a4e7)
C         1.75374295326169   -0.03965504271602    0.41034334971917
C         3.16630415411339    0.21077105942807   -0.16663696445037
C         3.30463170282287    1.67536695809482   -0.53888428791134
C         4.03861072165973    1.91808598347221    0.85084677210485
N         3.21157235228181    2.61002750034455    1.83152887165138
C         4.12756157167164    3.62345919611402    2.43272533693500
C         4.18429287608683    3.37843665100358    3.97736740771050
N         4.79491871611622    2.09939962427266    4.37221686134035
C         5.43698745395137    3.52519981803447    1.68427742395457
C         5.29468719504674    2.61978523379943    0.72645348680670
C         6.24545547793721    1.88981126270850   -0.11447509694603
C         5.90553017384069    0.46600588926842    0.38959638028140
C         4.40236437190519    0.44288887538789    0.95098775243635
C         4.32594078313637   -0.92581553622349    1.62860457935957
C         4.04617636188371   -1.77357189685815    0.37715218314897
O         3.62338315053800   -1.00610154808464   -0.77674068226297
H         0.99680433087133    0.28113644073724   -0.31354743510608
H         1.66148854809944    0.54436496144443    1.32722792470884
H         1.59085763535611   -1.07844513896224    0.73321066028859
H         2.42728574640436    2.31536173191864   -0.68198353712244
H         4.00382296834905    1.72569880656529   -1.38583542859104
H         2.31959542329677    2.97366093618422    1.48600711733303
H         3.76948151692108    4.64797371561989    2.30220561874905
H         3.17972972515908    3.36059249128019    4.41517716417146
H         4.72187818927407    4.16115747329921    4.53022985050099
H         5.62638570654570    1.91712173422074    3.80811508464117
H         4.19003680876836    1.27517894161799    4.35560253285138
H         6.22200533069261    4.25537932446380    1.79441616968515
H         7.29937863436716    2.04326367375201    0.14633821654379
H         6.28568410193449    2.06818614133847   -1.19401358508267
H         6.57776277964214    0.24281955882717    1.23093192642232
H         6.13792371001900   -0.28683602901120   -0.37026961137449
H         3.51839333274677   -0.95642085274444    2.36519323218647
H         5.18926916302947   -1.36869851398247    2.14410341116714
H         3.21491370442494   -2.46877060415152    0.55402803997249
H         4.90694172562993   -2.32422069711676   -0.00794511236405
