36
 energy: -47.846379082855 gnorm: 0.153752778894 xtb: 6.4.1 (79825abcba525fcdf90b791dcacef51065a7a4e7)
C         1.84858941889147   -0.18955966043944    0.58485655644423
C         3.18395828598195    0.13571948144407   -0.12361512210380
C         3.37401614065115    1.59182109841719   -0.50622433972100
C         4.07201364743266    1.84725717890543    0.89967111757629
N         3.19769426347353    2.50139962966317    1.86516382659928
C         3.98697278415650    3.68335791761588    2.32071981774859
C         4.14698236700039    3.65615026591147    3.87726415786089
N         4.83832443310707    2.46548020197594    4.39597088184639
C         5.33841306813203    3.61488747073954    1.64740987825591
C         5.32640774292732    2.56066340439134    0.84371893344869
C         6.31557814804215    1.90413088544883   -0.01330509649881
C         5.82277737367752    0.43845227433265    0.06280419662587
C         4.47347616423169    0.37875651181037    0.92942104501907
C         4.30555231560302   -0.96355008019800    1.64242277704116
C         4.08159524165945   -1.88193232972703    0.43018956995969
O         3.66708669095347   -1.08453156638679   -0.70628227820314
H         1.71795042669747   -1.26046551510962    0.77452791605574
H         0.99290016842121    0.17923354572295    0.01735762205047
H         1.76368600470780    0.37973880928228    1.52216677738333
H         2.36536276683758    2.00473863389379   -0.61542191722698
H         3.97090061746807    1.69355549345403   -1.42388821997530
H         2.23951869350653    2.69454824370388    1.56212820210282
H         3.55224539652318    4.62431828681124    1.97359966208900
H         3.18710368048728    3.63687151885304    4.40585110126834
H         4.74752183156830    4.54765297385308    4.10504036940794
H         5.76292315332207    2.33170800703357    3.98366564796288
H         4.21248139099764    1.66542166417523    4.27881836616902
H         6.06560744620468    4.32342305972935    2.00895017414545
H         7.39556932740075    1.97256146357831    0.16350431889868
H         6.24449974694944    2.22121862713864   -1.05888747314813
H         6.54011102250509   -0.17193570527697    0.63061866207739
H         5.78460035902468   -0.13890283353787   -0.86637696675903
H         3.49765502502578   -0.91901652968262    2.37791658320744
H         5.18684304960102   -1.31268161799383    2.19798921625572
H         3.25193974309527   -2.56652679990170    0.65061207576556
H         4.94975646619822   -2.46029294293491    0.10734885383152
