36
 energy: -47.846163461677 gnorm: 0.138066133934 xtb: 6.4.1 (79825abcba525fcdf90b791dcacef51065a7a4e7)
C         1.76571596546988   -0.10251195665978    0.41914981960935
C         3.13408978669359    0.15858770824055   -0.25191553416067
C         3.30332878617769    1.66579945071396   -0.30105463242684
C         4.13049235794100    1.66040622125340    1.05716533331076
N         3.51172279164656    2.23385695956089    2.24577434245186
C         4.15115575810879    3.55885723114527    2.49680623199804
C         4.19845572254137    4.14936279234675    3.94533635482261
N         4.63801541465719    3.18537666165373    4.96622995370689
C         5.48334568684105    3.38690466868019    1.80389380508752
C         5.38648867975638    2.36689613406126    0.96267270751790
C         6.27253164024268    1.71937206680114   -0.00666915925619
C         5.89815336801013    0.22115293380918    0.10305478940086
C         4.45056730183131    0.19498562138566    0.79516167667847
C         4.27918784342502   -1.26542558335857    1.21490572168986
C         4.02349722748202   -1.89405782169298   -0.16441871022417
O         3.51019582000085   -0.92695539732588   -1.11334870968343
H         0.97407628742382    0.20612940997861   -0.27217372848265
H         1.60365601838319    0.40572145552867    1.37083408314307
H         1.54554645574811   -1.15661348765147    0.64332640150816
H         2.32525422639629    2.15403499609294   -0.23175213316252
H         3.83713064336019    2.07625372547816   -1.17014083370914
H         2.48940387654075    2.26643131802850    2.27802878292634
H         3.57114292705181    4.31316694543429    1.95876469881222
H         3.14335106893605    4.32561250948831    4.18373334856159
H         4.83874329552134    5.03503779430348    4.05899528016285
H         5.64273925183501    3.00698138896536    4.92777819361676
H         4.20980273623148    2.26288328085072    4.86069439070128
H         6.28970722849154    4.03848853527447    2.09845322292804
H         7.33716289702011    1.87812050043912    0.20233913197273
H         6.06387393038990    2.09354417356447   -1.01428836787930
H         6.60284001221578   -0.33667390097577    0.73693196340210
H         5.87512105652116   -0.27810202547522   -0.87079737091613
H         3.48703487358612   -1.50393232521536    1.92991664301680
H         5.23627975190783   -1.64225264841783    1.60116559771153
H         3.14174102845526   -2.54223673716799   -0.07523343733307
H         4.84132914661749   -2.50166381244013   -0.55735248378744
