36
 energy: -47.845564984365 gnorm: 0.137075249424 xtb: 6.4.1 (79825abcba525fcdf90b791dcacef51065a7a4e7)
C         1.73025445992502   -0.16617487155778    0.35173676842166
C         3.18247229431195    0.07313618364114   -0.12233310081464
C         3.39453692997336    1.55765711848573   -0.35464735589705
C         4.11348654792562    1.71480442946524    1.05510663327121
N         3.28646380983320    2.37156774973568    2.05970019743288
C         3.88748547474554    3.73376184452694    2.16322524499975
C         3.99812788634051    4.05123938580239    3.69166885324259
N         4.98792893900936    3.14377226378173    4.29292005852497
C         5.25271622904125    3.60978491285934    1.52667200531654
C         5.38493501659401    2.39786991162394    1.00587275742630
C         6.47392131889444    1.58963836359609    0.45373706415677
C         5.75333975402888    0.25166175742475    0.15803480652582
C         4.40369412564193    0.22032773110887    1.02560436683893
C         4.30479738594966   -1.18351520344131    1.62376933351055
C         4.05243278719297   -1.91597556801019    0.29602463223790
O         3.70509758815580   -1.06533306868310   -0.82424282500734
H         1.67597975284705   -1.25884495499632    0.40657713438793
H         1.03478772804373    0.20487372765001   -0.40252878551705
H         1.56924595103252    0.44190540108313    1.25405291668481
H         2.48226327520567    2.16392592193521   -0.35588984710450
H         4.02473698214064    1.81347220719839   -1.21843812562728
H         2.29459841440091    2.48318909559940    1.83391023770455
H         3.26605498476950    4.51976087563529    1.72628544250946
H         3.08904657570344    3.89693586889302    4.28404079145860
H         4.32820457985894    5.08856808057697    3.84101839331943
H         5.92820620493745    3.25501143990753    3.91045710967359
H         4.68159563674872    2.17555917177424    4.17366736440373
H         6.05034532764228    4.33167926864836    1.59149547097992
H         7.34101765977893    1.41191553738790    1.10094938353595
H         7.02190592618698    2.01787670437492   -0.39193667961501
H         6.30053642636672   -0.67174009728798    0.39774115982660
H         5.60494997384146    0.11366032594056   -0.91765572071150
H         3.47023298238303   -1.26976408037972    2.32497956815986
H         5.19434994409846   -1.58133036350568    2.13137115333654
H         3.22797384780676   -2.62467501554059    0.44963604025785
H         4.88971866453198   -2.53605660321468   -0.03090487942018
