36
 energy: -47.838491527030 gnorm: 0.149047990408 xtb: 6.4.1 (79825abcba525fcdf90b791dcacef51065a7a4e7)
C         1.87023986256983   -0.04568175327384    0.70270721962664
C         3.20707604720049    0.06247237580753   -0.06678634758845
C         3.48327959961196    1.47093238381249   -0.55942792581755
C         4.16027627096445    1.77939139105054    0.84610354810737
N         3.43851989189934    2.45875979314840    1.91476590502306
C         4.09932342056949    3.75351694406362    2.25308510809926
C         4.15107763053454    3.99104901294724    3.79907141392498
N         4.19497143431150    2.76711218281933    4.61439815866008
C         5.41863826424743    3.57401257116855    1.53781461457754
C         5.41656929788815    2.48829974541011    0.77710767841348
C         6.41459226833582    1.75070607557751    0.00000474479505
C         5.80813178872707    0.32787349166862   -0.06790807053867
C         4.54562674412989    0.30826230709156    0.92249514116166
C         4.38916516693011   -1.03169295231762    1.64249276304071
C         4.02938620621130   -2.00701305918211    0.51006092099323
O         3.57141986689448   -1.21452881323083   -0.61309050798635
H         1.73229477099110   -1.10117935946511    0.96111982532479
H         1.17399069125284    0.35786440835571   -0.03394408719060
H         1.77399059375833    0.67981396922561    1.52383560358024
H         2.51943252201987    1.96748747467021   -0.71511507630733
H         4.12693638497604    1.58741405517217   -1.44309411417344
H         2.44969636756040    2.52724327025106    1.66025568229215
H         3.53442957337851    4.59711273037767    1.84795818023630
H         3.24802960343410    4.53269818458989    4.10282026002686
H         4.92061571888616    4.70351372905170    4.12696149000754
H         5.04523910676605    2.22094231301234    4.46771223662597
H         3.50594239414174    2.10066525463171    4.25860978785188
H         6.27330247791338    4.17279649987637    1.80717056662294
H         7.40197616452337    1.66278443160017    0.46869236356596
H         6.56088597777251    2.23652511119242   -0.97026186862741
H         6.45377365474500   -0.51529066078693    0.21805541804482
H         5.65363369632406    0.07239387692206   -1.12101516288740
H         3.47614860676213   -0.91993503830563    2.23371466058864
H         5.26050100173895   -1.40202770350053    2.20002868534546
H         3.19597557490530   -2.68510902411141    0.73632736385794
H         4.76148069871966   -2.67445416600669    0.05072328161547
