36
 energy: -47.840006247915 gnorm: 0.131250088195 xtb: 6.4.1 (79825abcba525fcdf90b791dcacef51065a7a4e7)
C         1.77337429071132   -0.03766603592759    0.50320097506327
C         3.15453474213891    0.11326016956908   -0.17544892506082
C         3.39184283982785    1.57981226171983   -0.48472792040315
C         4.13785466922986    1.74844939559881    0.90955254117983
N         3.41003646046719    2.27760903675463    2.05619268505842
C         3.97780711649297    3.64313825656974    2.25739823838353
C         4.00738258727086    3.83075016406733    3.81081405366504
N         4.89940385676094    2.88937471543908    4.50566371543390
C         5.30661603318810    3.61924139149115    1.53759190781238
C         5.38674213670227    2.47286677317476    0.87664053807137
C         6.48486668222914    1.69116466372593    0.30475982889736
C         5.89571371846845    0.28962784513986    0.01243748824955
C         4.50569043981574    0.27394869131434    0.81418028503174
C         4.26555228829485   -1.05839938521424    1.52519300562083
C         3.86801700578849   -1.91908096372609    0.31511657595464
O         3.57458765596064   -1.09027528284130   -0.83649704012595
H         1.32972597188543   -1.03567006057933    0.41926504883873
H         1.01887150502288    0.59543328335523    0.03396932029209
H         1.77782612906665    0.14583643766227    1.58771321323486
H         2.54714643105781    2.23239493441009   -0.73055398161003
H         4.08597663967031    1.76843688816890   -1.31618865975740
H         2.38831822877451    2.33385030703444    2.06908341603739
H         3.37795383770958    4.45857180042969    1.84492894677334
H         2.97794839614579    3.72862072435961    4.17272253768966
H         4.41783971646154    4.83998846718827    3.95318585244349
H         5.83539304169433    3.04340952837722    4.12754875509394
H         4.72103091480966    1.88415451180063    4.44897747139986
H         6.00085761665189    4.33649868550485    1.94393701744170
H         7.19321329208114    1.53926245046866    1.12786131117709
H         7.03925212608877    2.21503894069040   -0.48076662912700
H         6.55036491760228   -0.43152298270768    0.52324821661495
H         5.84535490358606    0.10326993794408   -1.06501726764565
H         3.33834358022805   -0.94772465194794    2.09411083483083
H         5.08298373244245   -1.47566951319718    2.12927222947827
H         2.93816766094675   -2.46469682615007    0.52312482713776
H         4.73649360987123   -2.51349601850722    0.02382607161846
