36
 energy: -47.840188063474 gnorm: 0.138799775329 xtb: 6.4.1 (79825abcba525fcdf90b791dcacef51065a7a4e7)
C         1.87237373121081   -0.10420200158519    0.68561261118541
C         3.17866223442799    0.08251689023976   -0.12042402174283
C         3.24164830412722    1.53740632437151   -0.54712440293322
C         4.03709904421812    1.81713888102145    0.80120715590341
N         3.31352343781916    2.48726872772592    1.87446259988625
C         4.07451200105616    3.68848450805544    2.32777740786077
C         4.37729202378468    3.68950034619713    3.86319163340894
N         4.20365676930881    2.44141949805749    4.62269852713498
C         5.36228466235679    3.60450095134817    1.54100319761629
C         5.26941025650138    2.56598053677031    0.72228387726561
C         6.31163998378150    1.91647847580874   -0.07514165549750
C         5.93416131607010    0.42106989162183    0.05947644743816
C         4.53078662691197    0.37714711737812    0.83653009666651
C         4.38603426732915   -0.94191362753428    1.59645270567096
C         4.24329596759684   -1.89880453011480    0.40184915291555
O         3.54093058100558   -1.19991874994368   -0.65525779849893
H         1.47027862971375   -1.11784226272913    0.58200724940427
H         1.09605836000277    0.54139950542537    0.27233219622024
H         1.92823543775502    0.25818197836138    1.72263580730063
H         2.29810571455944    2.09324864288248   -0.57106874920675
H         3.73032423076644    1.68659659510848   -1.52060582207074
H         2.29328097078524    2.56152392036756    1.84567223643053
H         3.57004399114303    4.64241628878901    2.15338441187723
H         3.71499466686567    4.38858838724312    4.38643253767634
H         5.42167009470661    3.99888891948342    4.00762116468048
H         4.96143523861880    1.79215617020488    4.40589833621419
H         3.39481309236734    1.91695255142585    4.28181112791165
H         6.09798683390135    4.38597803840716    1.63888885069031
H         7.28218041515988    2.15628385493876    0.37526915220565
H         6.49857627931508    2.18639622219715   -1.11966954787934
H         6.66791335440922   -0.09567117545637    0.69519724576933
H         5.85196201786604   -0.15122714409733   -0.86998222039359
H         3.57147390981262   -1.09669711174040    2.30931027211190
H         5.36758733963144   -1.04752498808949    2.07875971472550
H         3.70172383915782   -2.82289063560435    0.64340331993716
H         5.20188154912589   -2.17371525630651   -0.04308770965145
