36
 energy: -47.845635785300 gnorm: 0.131338045632 xtb: 6.4.1 (79825abcba525fcdf90b791dcacef51065a7a4e7)
C         1.83080616769024    0.12485586698072    0.51474886407700
C         3.20723423537100    0.17642151225151   -0.18791421780915
C         3.51037559652951    1.62447574465128   -0.52553526058020
C         4.14013363949484    1.75708846715932    0.92870296441512
N         3.33043095289498    2.33666264381098    1.99312216876175
C         3.94229206529265    3.66929863816017    2.27101517708597
C         3.98008082686528    3.73584988617490    3.83412635105895
N         4.90602044688085    2.74923298435387    4.41199192902357
C         5.31167393405442    3.57611533478284    1.63813644395803
C         5.40858978388942    2.44712179123497    0.95007211271213
C         6.46919070151164    1.74698093576100    0.22280896202906
C         5.98777178960084    0.27560031267235    0.21123686687737
C         4.51971809979951    0.28411656771323    0.85927077643374
C         4.21464789614168   -1.06415230750833    1.51307508349425
C         3.83020716858780   -1.93561085876188    0.30648592608720
O         3.41830356021080   -1.10275522003083   -0.80523367811955
H         1.48374723609186   -0.91357062532129    0.48155794568518
H         1.15351018942657    0.62052339338188   -0.18228156725757
H         1.81076382608798    0.49285265856955    1.55110616417769
H         2.64225474058035    2.28339309289743   -0.63508312263325
H         4.20091943389586    1.63814941634463   -1.38092417720888
H         2.32383398190944    2.29626273183562    2.17303270349424
H         3.33829490986507    4.46153457732193    1.82108587264591
H         2.95892288888865    3.62412416055925    4.21609067593914
H         4.31206197785874    4.73439188291665    4.15036854756785
H         5.70928100297563    2.67220223805557    3.78620271412940
H         4.50155335776581    1.81029794404046    4.39452043087013
H         6.10589101897191    4.25237956434963    1.90911916354032
H         7.42976820695632    1.92488403941560    0.72077140087162
H         6.64198213341198    2.17660858985357   -0.76936162735935
H         6.65036586315104   -0.39484023607452    0.77783450989575
H         5.99089460782227   -0.04178917794115   -0.83634520522216
H         3.45528213524924   -0.99684893944348    2.29695409473247
H         5.13014417777102   -1.43022645728850    1.99792198836613
H         2.95565142096728   -2.57350563973300    0.49040549969906
H         4.69792572554597   -2.46057923718002   -0.09836434780449
