36
 energy: -47.845303861745 gnorm: 0.143092092894 xtb: 6.4.1 (79825abcba525fcdf90b791dcacef51065a7a4e7)
C         1.84662788084214    0.19458475238122    0.66245283396826
C         3.15856245839724    0.17357802010666   -0.15567614842350
C         3.56640421108479    1.59099405729941   -0.51252429681181
C         4.20608547542945    1.70846549165650    0.93868157081539
N         3.35791440806281    2.23571390208211    2.00034433808679
C         3.93962301041283    3.58106167150202    2.28171901515778
C         3.97283255589632    3.88735446365547    3.81607733515560
N         4.71841690337848    2.86891116342569    4.57210838108451
C         5.32063612534499    3.57571232984248    1.66755333915103
C         5.43481503930453    2.46720835743999    0.94947691586690
C         6.44260052684082    1.71327511060986    0.20118801130878
C         5.82019377050711    0.31217756357288   -0.01420583405304
C         4.48791082904753    0.21345527313284    0.87488255455707
C         4.34378825659471   -1.17396908353250    1.50149184397984
C         3.93996285493130   -1.98454788530676    0.25932473534046
O         3.40587423781202   -1.10499741053003   -0.76066246511105
H         1.27751860397644   -0.66325973431909    0.28815537636750
H         1.20140339851284    1.03536759963345    0.40353753110160
H         1.92446620371007    0.03886742488194    1.74852516027647
H         2.65941277216603    2.19561999582018   -0.62023050472334
H         4.24797694830894    1.72966734248531   -1.36396794252198
H         2.45603220557122    2.55896278737041    1.64068334181969
H         3.37663473488756    4.38402020190320    1.79882304460002
H         2.93223715591814    3.91082820846287    4.15922907161138
H         4.42123605159626    4.83559956621947    4.14329631898722
H         5.70463216329502    2.83545253126282    4.30936634026547
H         4.27906774008410    1.98091855016474    4.31924612568338
H         6.06425320538183    4.32963609425320    1.86799864003955
H         7.37121511997741    1.56304439981817    0.76459809034609
H         6.77834697757527    2.17864076261662   -0.73130778716092
H         6.61356961970518   -0.39711366674345    0.26330998780735
H         5.67416378972485    0.04164382290702   -1.06475843901372
H         3.56580587948828   -1.20743629735749    2.26912181545617
H         5.29695904419064   -1.55910501536292    1.88924951810140
H         3.10264572268794   -2.67737445708852    0.41577050460966
H         4.77357058169881   -2.51749057592674   -0.20273725673537
