36
 energy: -47.846219812948 gnorm: 0.122275707595 xtb: 6.4.1 (79825abcba525fcdf90b791dcacef51065a7a4e7)
C         1.73028767509894    0.26000815117746    0.59121346809506
C         3.11939418148100    0.27622830916656   -0.08780687325439
C         3.43501622625677    1.70124301690617   -0.50308926574481
C         4.17465436993235    1.84293884345875    0.89757051658058
N         3.30896195426937    2.42219022723405    1.91715737724939
C         4.01291517183712    3.62641420443140    2.44801679125719
C         4.12668899919961    3.36571713075445    3.98693399621127
N         4.72103471605772    2.05217289879094    4.28029459406286
C         5.35951111355903    3.57939271603384    1.76325866929761
C         5.43784047673571    2.54147095302086    0.94226258297791
C         6.47265482624492    1.84217488041156    0.17798024683626
C         5.89968327081824    0.41534497878147   -0.00290379087123
C         4.52794510710738    0.36343427935638    0.82826511439792
C         4.32381561641267   -0.99384727737855    1.50241254874025
C         4.02886968841754   -1.81323435305394    0.23564352245084
O         3.27892437654880   -1.00908680164035   -0.70784060685046
H         1.78794719264133    0.46367862126149    1.66595754149957
H         1.21347712622824   -0.70006086279611    0.55324121887221
H         0.95420446281849    0.94271604533903    0.21509573613687
H         2.55728870017734    2.32979553019344   -0.68835325714373
H         4.20034451867145    1.80678494655923   -1.28530499398584
H         2.32953825688879    2.48448518672647    1.62718160018501
H         3.53085109716736    4.59372590459620    2.28428214735095
H         3.10559951462427    3.47772666789467    4.36899819075154
H         4.81885536198451    4.13868729315853    4.34849946149002
H         5.56813555819338    1.88787791937838    3.73421701455773
H         4.08882177661400    1.28946244417106    4.02715934981865
H         6.11207963330734    4.31391063433069    1.99920312988931
H         7.41106569164250    1.90211013395572    0.74199980338840
H         6.69479002449139    2.38629237028543   -0.74583325676814
H         6.66939593156852   -0.29009638056597    0.34271047200568
H         5.68734687131133    0.34254187168771   -1.07425199922248
H         3.56359527460575   -0.96874257653488    2.28794878000619
H         5.25629390647458   -1.45093413700521    1.86126637999638
H         3.37059764684786   -2.66485048533772    0.45246554312485
H         4.96279341802863   -2.11109134337882   -0.24549960343135
