36
 energy: -47.841902186618 gnorm: 0.148706750000 xtb: 6.4.1 (79825abcba525fcdf90b791dcacef51065a7a4e7)
C         1.79983221721437   -0.02935848471121    0.53725313675024
C         3.18263183444320    0.17452854702820   -0.12399110734845
C         3.51880731158012    1.57312217895169   -0.60738082712791
C         4.13592394182734    1.87772104428810    0.82627769102210
N         3.30023745839436    2.54674675216030    1.81549232824271
C         4.04491114619440    3.73724251404369    2.32115839817961
C         4.13522507178334    3.55296885670395    3.87262873711628
N         4.55260363602896    2.19122552733136    4.24162190241342
C         5.41678233687522    3.61811739560730    1.69809824298090
C         5.36392865622405    2.63748325116605    0.80758446039345
C         6.26470846818395    1.83173375455862   -0.01906339997989
C         5.82016716820204    0.36644603277915    0.20935274712173
C         4.42077562332815    0.39140029485585    0.99438947937084
C         4.34433204080208   -0.92980338662354    1.76050571981724
C         3.97218891344040   -1.83788179541876    0.57729180258985
O         3.66335178813549   -1.08402670077664   -0.62085497718434
H         1.24434920249786   -0.68514028777868   -0.14191544848086
H         1.29564383416786    0.93814426593042    0.53750710102814
H         1.89600713985822   -0.42518745287218    1.55898186827726
H         2.59534273032901    2.10565785655862   -0.85922512755761
H         4.24136151218413    1.58456069316835   -1.43594135581939
H         2.47514165997049    3.00360377355211    1.41833244362017
H         3.64576367259616    4.72891758539792    2.09279778221585
H         3.13653530147547    3.78901142074288    4.25739563721609
H         4.87773424073541    4.24388799709421    4.29526049752880
H         5.49122982440562    1.98065235668475    3.89896578162651
H         3.96478570677728    1.47874157549925    3.80306222585637
H         6.12624675461247    4.42848830568804    1.73689191068024
H         7.30321590564317    1.98453772530693    0.29792002828283
H         6.26918702330577    2.11207685615150   -1.07747115077468
H         6.57606535243453   -0.02199124585117    0.90741343850160
H         5.69428104357142   -0.31361824840368   -0.63908068525841
H         3.59142013283932   -1.08062223545886    2.53897200176950
H         5.30452378056596   -1.15124853200028    2.24652436807328
H         3.14800751886733   -2.54279023216535    0.74879411482400
H         4.77666934145954   -2.47617392102758    0.20604331102145
