36
 energy: -47.842729784024 gnorm: 0.136990121585 xtb: 6.4.1 (79825abcba525fcdf90b791dcacef51065a7a4e7)
C         1.81392229476818    0.01762171624806    0.56892154628962
C         3.20832305258620    0.12811110072078   -0.09015909070429
C         3.43521442044836    1.53142532315890   -0.62117059538041
C         4.15078441393327    1.85291938552112    0.76215557841575
N         3.31707957935525    2.47349575032682    1.78408225122613
C         4.04009191123101    3.67906904828081    2.28544382609508
C         4.11667298099956    3.67971445291369    3.84855243791004
N         4.31566282069040    2.30470657005223    4.33276528745050
C         5.39679489345125    3.61958730950503    1.62193477029819
C         5.38368961258128    2.60490554215571    0.76888095991754
C         6.38449811931321    1.85044876543528    0.01180730465883
C         5.93401771356322    0.36960537408538    0.04388959213085
C         4.56130858413217    0.39095768251382    0.87480223339560
C         4.56763103516116   -0.89910276681278    1.69581437982443
C         3.97783201611683   -1.92439890313494    0.71398087698613
O         3.55470736135778   -1.21144729109613   -0.47425272991641
H         1.72653869773165   -0.21309522645783    1.63616796619597
H         1.28952765250307   -0.77579793980397    0.03435342968777
H         1.15992081978015    0.90056726408532    0.51843373051869
H         2.51092013871785    2.07651317091701   -0.84109321739057
H         4.13090045941031    1.57617307194745   -1.47131560641583
H         2.42135769033565    2.80715026340663    1.41857664290714
H         3.47215161258617    4.56177608004695    1.98022449647649
H         3.15466541613583    4.09629058147538    4.16815952760547
H         4.97248688412331    4.29292556873902    4.16297480094567
H         5.11331940786466    1.87838202526683    3.85867167843724
H         3.55310784748908    1.73301138908841    3.96239733262203
H         6.21656374532677    4.24305279109731    1.93944942137861
H         7.35653803520081    1.98897711209989    0.49994001423488
H         6.52190518548851    2.33093191612229   -0.96240751815290
H         6.74909909089784   -0.19287444227442    0.52223374081968
H         5.74061190800629   -0.08635125968504   -0.93226192086834
H         3.73861997417947   -0.79020829166586    2.40045261942317
H         5.49756411410850   -1.08583505875570    2.25040952553240
H         3.15620417673123   -2.46491396237332    1.20219710125869
H         4.72360797722820   -2.63763873054082    0.35685596335997
