36
 energy: -47.845966700404 gnorm: 0.117460708251 xtb: 6.4.1 (79825abcba525fcdf90b791dcacef51065a7a4e7)
C         1.81452427481470   -0.08726925356761    0.82769852721278
C         3.12660856038812    0.07915117339705    0.02664438969826
C         3.28982933563458    1.48179078359137   -0.52896773414564
C         4.09228912192362    1.89958299925031    0.77889238923744
N         3.28968699968889    2.56223473154989    1.79930181838354
C         4.09462062748933    3.68937702682642    2.35531381641827
C         4.30713637259329    3.44582694870290    3.88655319007626
N         4.05560112555866    2.06431646510792    4.32571662338558
C         5.36901278682112    3.66499296013791    1.54306055932074
C         5.28364622111293    2.70302231881070    0.63488840866940
C         6.33505167921988    2.00853068295298   -0.11090722395067
C         5.87130903854034    0.53329003169201   -0.03696947509618
C         4.54222871966067    0.44706191672736    0.85819101496193
C         4.61795155116465   -0.85445061702028    1.65737062180527
C         4.22580207027701   -1.83833602971016    0.54324300182679
O         3.59236685458814   -1.14569903116075   -0.56049944780274
H         1.28586118229147   -1.01384411881089    0.57899091399262
H         1.17760568793766    0.68542669577628    0.39463589115503
H         2.00076444410320    0.03374793653454    1.90497714921110
H         2.44525239006891    2.13695501742046   -0.76825050222129
H         3.87114104278260    1.49524690695422   -1.46203985965431
H         2.35022206008516    2.68025691936169    1.41108308866487
H         3.66660646267074    4.69156163446831    2.26977663110890
H         3.63404459334091    4.14360817294228    4.39762239922916
H         5.32908650672888    3.70009423000366    4.20003812394579
H         4.71941405831353    1.41952181477432    3.89401574546052
H         3.11768128750299    1.79873064625890    4.01706076460788
H         6.20322428194935    4.23806727820885    1.91349641886131
H         7.25492665418482    2.26660415778867    0.42719439206407
H         6.47457773392128    2.26539383333149   -1.16608165467076
H         6.61757722546022   -0.05776160872220    0.51375374388470
H         5.74771562022230    0.09669129547902   -1.03310211835721
H         3.90655492662245   -0.90912120436769    2.48595880365324
H         5.60962839889574   -1.03102166833717    2.09625551487622
H         3.54899974651109   -2.59926702158011    0.95373850355397
H         5.10297997276466   -2.34965477092260    0.14131874317494
