36
 energy: -47.841971108495 gnorm: 0.153334665178 xtb: 6.4.1 (79825abcba525fcdf90b791dcacef51065a7a4e7)
C         1.82174581464538   -0.01867337297724    0.60994377120315
C         3.16751503496663    0.09882060004358   -0.14241852880707
C         3.42841260228753    1.54404308127995   -0.52452868703765
C         4.10147155230277    1.79351306453698    0.89453668165863
N         3.31398992241513    2.49828415118867    1.89837098050034
C         3.95051066733583    3.80581188569123    2.23412357191575
C         4.09900567079962    3.84320213559967    3.79159742512528
N         4.77640508708578    2.61476269883817    4.23518765905591
C         5.30280086080236    3.62954821078546    1.58245826523778
C         5.34778180948861    2.52203888289597    0.85523654331320
C         6.43623579910018    1.67740999884975    0.35940071079122
C         5.82266575321562    0.29119503038014    0.04507783129776
C         4.46723754307203    0.31544655819294    0.90381429948991
C         4.37824917212226   -1.03791166108458    1.61011414980593
C         4.01676495537834   -1.98113271435468    0.45134096761408
O         3.48553773317205   -1.20572756819774   -0.65128230472931
H         1.72455093081280    0.56308985158677    1.53297455510445
H         1.40451279261849   -0.98319185026667    0.90301079209539
H         1.16124384826687    0.60212594956627   -0.01311733441310
H         2.54204607746634    2.16603658763512   -0.68971068521907
H         4.12907237095068    1.78206926929591   -1.33763838478148
H         2.38246372242622    2.67243760434682    1.51214966845084
H         3.25855022147580    4.58793028475291    1.91106277415065
H         3.11291872028501    3.85344006155153    4.26979260302176
H         4.66499667407812    4.73626441721521    4.09059688296465
H         5.73980358816690    2.55902911080212    3.90122584436110
H         4.26936970533456    1.88187889560499    3.73389498937414
H         6.10346782984707    4.34778867614348    1.65034610224830
H         7.15442637538588    1.49442039346634    1.16751106432717
H         7.03101712216263    2.02189694700005   -0.49289219953760
H         6.50397814724791   -0.52438831323396    0.32825896315187
H         5.56602927753229    0.17900146589246   -1.01309245534251
H         3.45496868053395   -1.05275120776803    2.19574656386960
H         5.29180113481168   -1.31909187690089    2.15194508051256
H         3.33717599369743   -2.76830064365255    0.80363262700652
H         4.94017814734111   -2.50226663576780    0.19026903844379
