36
 energy: -47.844578303928 gnorm: 0.143710908366 xtb: 6.4.1 (79825abcba525fcdf90b791dcacef51065a7a4e7)
C         1.74591651111801   -0.17388962179894    0.34661400942365
C         3.16680813546040    0.16911782574449   -0.15772866973281
C         3.37882160332128    1.65726885472424   -0.36557605785251
C         4.13975813633278    1.72719252882007    1.02908391975967
N         3.40474781698122    2.31898294281985    2.13996503227270
C         4.01281906750485    3.66833774581273    2.33234022109345
C         4.09232665851679    3.97173426273594    3.86557298466832
N         4.92879332324881    3.02185309821102    4.61574297461112
C         5.38465641900774    3.52889606869241    1.71343502870157
C         5.42941849813751    2.37635310662172    1.05991169747040
C         6.39054626189884    1.62667057910990    0.24862088524242
C         5.78484621964344    0.20952463838940    0.10136646601632
C         4.42659641465021    0.23357911332664    0.95563863805824
C         4.21094317021578   -1.19641858965085    1.45258645216756
C         3.96058507659366   -1.87167528315225    0.09448435853354
O         3.60111187302141   -0.94194929621002   -0.95700134446362
H         1.54950136770014   -1.22118337929686    0.60053919378625
H         1.11710340522046    0.22462623019745   -0.45091138570490
H         1.50875415182652    0.48252261493111    1.19675327988529
H         2.52260526377090    2.31614767503195   -0.54607237967200
H         4.08114579552872    1.87944258988208   -1.18173016335020
H         2.43365932646435    2.46185472107401    1.85046168350410
H         3.46491846898603    4.51570632261272    1.91203300017779
H         3.04832351956382    4.00220379336265    4.19764522495390
H         4.49768828860736    4.99211434837585    3.90815420863204
H         5.68067761810340    2.66486403511528    4.02413312361755
H         4.31185969361720    2.26880317071482    4.92848343090338
H         6.15533849081138    4.23329693675247    1.98066957471824
H         7.42756060277270    1.55653840154155    0.59791731766267
H         6.51819001104217    2.00870412693458   -0.76951306205645
H         6.58477182314008   -0.44222976950753    0.48201005625459
H         5.58220592000819    0.04564376297949   -0.96176758093419
H         3.41966597344393   -1.26984079655698    2.20366699969853
H         5.15875662045621   -1.62363889723314    1.80804774136596
H         3.14532010432109   -2.60223967334443    0.17935257032348
H         4.90047250810736   -2.37727960334604   -0.13661502012673
