36
 energy: -47.835961029202 gnorm: 0.141731164841 xtb: 6.4.1 (79825abcba525fcdf90b791dcacef51065a7a4e7)
C         1.67576659102169    0.03812856881681    0.38158101722583
C         3.14525785407902    0.17038564693438   -0.08107667557633
C         3.44577565698416    1.59201192542451   -0.51858266286832
C         4.12464403587595    1.80921045809601    0.90301948082323
N         3.25565681425881    2.55202337980930    1.80723353511792
C         3.98977946065123    3.74881694925854    2.31346107770627
C         4.21666894651862    3.69419706168928    3.86094659426657
N         4.73612352993042    2.39956037861456    4.32869493416684
C         5.34937887501575    3.59410868593958    1.67160432249712
C         5.36714782975963    2.54414132054815    0.86246625198105
C         6.40643928917906    1.71961859866411    0.24277379602261
C         5.83991959005965    0.27949836095414    0.28713752682621
C         4.41133823448904    0.31812350170253    1.01711388922241
C         4.15765740432883   -1.05133273458330    1.64845572690390
C         4.11338603818752   -1.82218866932844    0.31920283944055
O         3.55642046572911   -1.02794831341479   -0.75699657627522
H         1.04704787430778   -0.41819236479994   -0.39066576998863
H         1.21131815854577    0.96653142466450    0.71717504790117
H         1.71171124456687   -0.63475649612265    1.25094484073590
H         2.61464945367584    2.26640033107119   -0.75146920057344
H         4.16772924505210    1.49438177174810   -1.34197766158794
H         2.37334246297436    2.90576604766887    1.42825477421554
H         3.45676450531591    4.68759778955718    2.14178605584024
H         3.30510349909980    3.93446992222811    4.41992808304839
H         5.06574876548995    4.37356403547398    4.01852420108432
H         5.68144129178267    2.24338516658115    3.97548532136332
H         4.25959495382547    1.59226316258552    3.92041854473050
H         6.03310175327434    4.36455178809130    1.98859985946604
H         7.33653789670732    1.83021494574436    0.81287051596555
H         6.66827265169144    2.01024276699896   -0.77987969263603
H         6.41555593967696   -0.45291695914543    0.87174415180822
H         5.70769449679652   -0.20956010724286   -0.68317807671651
H         3.35888801869136   -1.08766619301070    2.39429737012280
H         5.07489638687914   -1.33735999232590    2.18144850424802
H         3.49879002658654   -2.72994171696908    0.25723460685724
H         5.13815220872330   -2.10188580362472    0.06611225671036
