36
 energy: -47.845394807211 gnorm: 0.130668890705 xtb: 6.4.1 (79825abcba525fcdf90b791dcacef51065a7a4e7)
C         1.81684833093274   -0.07322014025619    0.55085877224065
C         3.21025116156536    0.07131747074135   -0.10372966725472
C         3.41658770129954    1.51599938100136   -0.51973816072794
C         4.15951399470368    1.78096885387473    0.86114618803122
N         3.40481118005251    2.42027535625244    1.93176443158593
C         4.03989278000668    3.73699415319800    2.23249697573979
C         4.18137232581851    3.88913091449202    3.78362928034490
N         4.32867937028139    2.59515597575150    4.46819861209628
C         5.35928143503830    3.62465686700855    1.50378644031492
C         5.39768987451626    2.51906326918606    0.77328050720256
C         6.40578205095915    1.75621348869440    0.03450227618610
C         5.91840599215012    0.28729283741293    0.07444669422649
C         4.54126041847800    0.30738098614013    0.89801721938222
C         4.30779899855784   -0.95184663983760    1.73359971317947
C         3.92681592192987   -1.91170677762444    0.59491081515235
O         3.62097684363266   -1.20017559207937   -0.62959699525334
H         1.69701956251655   -1.15191804536624    0.69895672863651
H         1.07613500973456    0.34072738459928   -0.13489539229483
H         1.77829789005857    0.47341540290910    1.50456901242131
H         2.49828206886253    2.11267382601633   -0.54211981798576
H         3.96912295954822    1.87363315263273   -1.40038040189537
H         2.42869854604632    2.51758316364264    1.64026377489279
H         3.48427850312304    4.54412530917723    1.74801919823259
H         3.30711895972942    4.49634884133973    4.04460884411568
H         5.03387432047268    4.51608097298177    4.07940059947901
H         5.25823203045966    2.20597402788339    4.30314511784900
H         3.71191527143227    1.88974627690165    4.05893453390687
H         6.20396253564608    4.28486524231372    1.61416900636699
H         7.37170192428343    1.85963080350231    0.54305789002719
H         6.55898318501908    2.13670785071775   -0.98067880671252
H         6.58885126036655   -0.38858860688834    0.62512052585384
H         5.88126570773015   -0.10181312152952   -0.94799700248683
H         3.57359116314535   -0.84927372519586    2.53737205146988
H         5.32723126300639   -1.18114963902167    2.07330278331475
H         3.03725097004645   -2.52329542800563    0.79545361157312
H         4.67055887986277   -2.64542778936608    0.27721456908911
