36
 energy: -47.842802532778 gnorm: 0.131870054722 xtb: 6.4.1 (79825abcba525fcdf90b791dcacef51065a7a4e7)
C         1.78793433454083    0.17474287794879    0.41216675557066
C         3.20458763370296    0.18452384158708   -0.20746734831719
C         3.43432649945705    1.64083689151528   -0.56679461743762
C         4.13753241778749    1.86000243403986    0.84262301481686
N         3.28715939012582    2.51746024816063    1.82706592290561
C         4.01901783752190    3.69146268295976    2.38708265876505
C         4.16022846363185    3.45902681811629    3.92825323263941
N         4.54054590413969    2.10735084190176    4.36761233718059
C         5.38581958824253    3.58097294283923    1.75141739771323
C         5.38880028072967    2.57996113756455    0.88226946047061
C         6.32371464875984    1.87793077707471    0.00075274308789
C         5.92959974864826    0.39125799148880    0.17777390071821
C         4.48208203558814    0.37707730900169    0.87037297733251
C         4.32524027958187   -0.92079009474030    1.66365586273836
C         4.08904303381138   -1.84760793105436    0.46019766562723
O         3.43080692785929   -1.16702204982004   -0.63650724862886
H         1.84341646829661   -0.20507998359260    1.43809923319728
H         1.16622223160601   -0.46913641306813   -0.21166101227636
H         1.34707356783317    1.17527743987258    0.53230070297331
H         2.47871595273801    2.15687460592750   -0.70934353983075
H         4.08432662363933    1.75324581207492   -1.44633542859863
H         2.36611133321762    2.79911860636234    1.48126765225610
H         3.50939869120115    4.65222857114737    2.27706462356347
H         3.20019246479394    3.66904018102055    4.41340082682435
H         4.87810646545685    4.16247200345061    4.37223834376352
H         5.50505140365406    1.82977602448054    4.17931798576960
H         4.00361150423488    1.41241526996271    3.84391023576346
H         6.17694585780329    4.27975807807552    1.96905079218620
H         7.37592386181017    2.02775640587305    0.27044387529770
H         6.13364422684600    2.18084065622608   -1.03411832033028
H         6.75395743527387   -0.18832748055214    0.61830700154756
H         5.73223970169369    0.02711058038618   -0.83544853452932
H         3.53564953466015   -0.85187790294710    2.41693534182644
H         5.22902947188889   -1.22875861808863    2.20729245232693
H         3.57128652177964   -2.74981929109365    0.81166142182528
H         5.03696955974188   -2.28044582307625    0.13382717319954
