36
 energy: -47.839845633860 gnorm: 0.144587252328 xtb: 6.4.1 (79825abcba525fcdf90b791dcacef51065a7a4e7)
C         1.72523759582584    0.05332153892476    0.47842309858874
C         3.15567586191756    0.22615256033711   -0.08275821543099
C         3.45683951220659    1.61226562376683   -0.62195647275933
C         4.12914318865973    1.96371527712137    0.77571339614435
N         3.21513050000816    2.60252129235813    1.71434036448790
C         3.94924037759464    3.70591380199113    2.40072575506264
C         4.24147968540528    3.30598642846638    3.88525527365755
N         4.67616467875138    1.91280788903567    4.07182492502156
C         5.30430334540665    3.63010656445792    1.73553182929424
C         5.38640454332099    2.67273979520883    0.82220826391704
C         6.37344411387695    1.86923630531684    0.09824812179926
C         5.85571449586991    0.41110095484930    0.14978818421280
C         4.46308266182281    0.48760731581368    0.94346661969860
C         4.35911622450384   -0.80905331654298    1.74734414273337
C         4.03156451244339   -1.80267807128245    0.62106185045901
O         3.50642065219993   -1.09322138956445   -0.52790669728328
H         1.75902068161128   -0.60118445161339    1.35612562995752
H         1.08507806783273   -0.38132637719406   -0.29069622410946
H         1.40825866483211    1.05675087978701    0.79860071302889
H         2.63958081457070    2.29375541394093   -0.88169965232609
H         4.27838080728500    1.71729085604661   -1.34498313552261
H         2.40379467514537    2.84949233342706    1.14164771233078
H         3.39366302174538    4.64730367745188    2.40310069058979
H         3.35838796901832    3.53064094998128    4.49420706777573
H         4.99548079266575    4.02682944168956    4.23047174344362
H         5.52330681093459    1.67856869313061    3.55196378289495
H         3.91619810851748    1.27875574991371    3.81506319363929
H         6.04761126168000    4.37271732667138    1.97546585797281
H         7.36385976848625    1.93065526920658    0.56475621419144
H         6.73526641558860    2.11192788868530   -0.90625410432493
H         6.57640826449149   -0.21631958515639    0.69430474359161
H         5.75425458208483   -0.04044182831850   -0.84217403519399
H         3.41697460242820   -0.83461902395782    2.30173386806490
H         5.20081524206077   -1.09548930720451    2.39288070493641
H         3.33854017252340   -2.58683410457029    0.95332755516313
H         4.91855464102646   -2.32962139801092    0.26327660564370
