36
 energy: -47.840588688257 gnorm: 0.149504800127 xtb: 6.4.1 (79825abcba525fcdf90b791dcacef51065a7a4e7)
C         1.77141232179388   -0.00172478206370    0.31956211621354
C         3.19580004098140    0.10503907245377   -0.27261164930155
C         3.42568179722630    1.59661361083346   -0.43105252916321
C         4.07373309912928    1.69729374791690    1.01769975437265
N         3.42372643058807    2.30737974014764    2.17086900922742
C         4.00279007860138    3.66585062695488    2.38710818485683
C         4.11495529548869    3.99440510895150    3.91309786974088
N         4.93427317625827    3.01724925898106    4.64698503589217
C         5.36759809644729    3.49962346146082    1.75933998178797
C         5.35056842362197    2.37036607897549    1.06512144061884
C         6.31117845020104    1.73184558774188    0.16317733656531
C         5.84618175288292    0.25603011812423    0.11213048251509
C         4.42945603195945    0.22462457810262    0.86519358288183
C         4.23545920502625   -1.19565397619668    1.39766982345006
C         3.93349172094275   -1.99572110613065    0.12025042966786
O         3.54317184448409   -1.10868817034034   -0.95680878324541
H         1.61893196978217   -0.96295811598799    0.82221641415610
H         1.12364857307422    0.20016024172248   -0.53478683280696
H         1.64218729226756    0.83457425495976    1.02224597264284
H         2.54792933187792    2.21830386444394   -0.63807542707877
H         4.17878412355126    1.90253615316732   -1.17130670583863
H         2.41060943099144    2.42071211977928    2.08149836193999
H         3.51903382643068    4.51908383739438    1.90455279828881
H         3.07211197123127    4.05450494769085    4.24477350491938
H         4.55040816305341    4.99932066487489    4.00159790056104
H         5.70938430148162    2.80707757176435    4.01626798072201
H         4.35379217263388    2.26728409913975    5.02920480643111
H         6.16232513756279    4.13874990811400    2.10786837066061
H         7.31949798304159    1.76417315355856    0.59279564794381
H         6.35670694168491    2.12362947898607   -0.85822944852956
H         6.67940510033259   -0.32474296963947    0.53402596702766
H         5.75142550688368    0.00273849107707   -0.94854790386335
H         3.34503815677487   -1.29570172813475    2.02438603839915
H         5.07483548323245   -1.57479983438782    1.99676592782002
H         3.18252830377301   -2.78325042061479    0.26665891806593
H         4.85342506522130   -2.53741808515799   -0.10935371503372
