36
 energy: -47.842829406352 gnorm: 0.135500511136 xtb: 6.4.1 (79825abcba525fcdf90b791dcacef51065a7a4e7)
C         1.79574400362951    0.03871859224863    0.69915337065717
C         3.14124330426389    0.11529665249223   -0.05894694100153
C         3.51325931004028    1.51999840366056   -0.49616633965026
C         4.20804418082251    1.70678101989356    0.92206367594274
N         3.42524305250039    2.38272044571027    1.94911828776707
C         4.05406471242691    3.71138094149173    2.20750143279421
C         4.06006244043830    4.07475377956722    3.72970306761367
N         4.42204548488605    2.97225422164633    4.63422986235125
C         5.44158640865444    3.51974931347387    1.63962276679981
C         5.47642536153930    2.39715530405025    0.93533549608218
C         6.41704022629343    1.69845940373210    0.05724044779781
C         5.81963407205443    0.27025388664499    0.04331581822289
C         4.49088505524546    0.21072332077795    0.94113776537775
C         4.31297160276242   -1.18582228294063    1.53810011939316
C         4.10050091145389   -1.97551625551140    0.23643514338654
O         3.42440090735484   -1.12600381765087   -0.72296622166284
H         1.91106873721835    0.60521190595943    1.62956545742903
H         1.62488929309377   -1.01813181044431    0.90925681146209
H         0.89846915854781    0.23626180960524    0.09439365130644
H         2.67304711266913    2.21211478949886   -0.61792427872246
H         4.16004877705780    1.69308191052084   -1.36819468900175
H         2.42213874504065    2.41377545233056    1.74898150926710
H         3.57632364136799    4.58876797663144    1.76383242885756
H         2.99571947870207    4.21613797782939    3.94953819897517
H         4.68381037566815    4.94465268519552    3.97773762382027
H         5.38127785752658    2.63220282412867    4.55049395219151
H         3.87901325041868    2.13697585160628    4.40417785373594
H         6.28830333057205    4.12211206391646    1.92558655295883
H         7.47314963674131    1.77900874098564    0.34091273563927
H         6.29871588256094    2.16021724278818   -0.92846656476563
H         6.53594388627521   -0.49610045509033    0.37370284955422
H         5.55747284263839   -0.02472490962242   -0.97768027763055
H         3.53531567533159   -1.24796641917374    2.30427358333453
H         5.18617628557349   -1.62414057038330    2.04070425812365
H         3.31894064127464   -2.70545255727990    0.48531353486902
H         4.99405394416829   -2.34745897317228   -0.26918589201811
