36
 energy: -47.837385255156 gnorm: 0.139301401608 xtb: 6.4.1 (79825abcba525fcdf90b791dcacef51065a7a4e7)
C         1.68179648703306    0.17144521889277    0.27924826153124
C         3.15673420405404    0.26128769314481   -0.17620284695785
C         3.39090655677816    1.70779696985161   -0.57056047863573
C         4.05025411946274    1.95042804587245    0.85610735348111
N         3.23097319139814    2.65428598848819    1.83481857863523
C         4.12220924356742    3.59908717359404    2.57005069896543
C         4.26912566887137    3.20183308765375    4.07662906437425
N         4.80863887845095    1.87076779787794    4.39584124495842
C         5.44786024721506    3.40602212927139    1.87019312074208
C         5.33516222358282    2.60851851046981    0.81722647313674
C         6.27674228157466    1.89840861277031   -0.05061806057406
C         5.83019649629310    0.42656464901252    0.12582234523134
C         4.42804010421720    0.47616049050711    0.90473170972160
C         4.20242298636803   -0.84570359786444    1.63966647782061
C         3.99204519597904   -1.74681629728394    0.41213678135707
O         3.65369359637423   -0.95586750982288   -0.75368987217296
H         1.39765617016726    0.98012334557685    0.96129304587707
H         1.53317673518400   -0.82528022957193    0.69724121794911
H         1.11869320802106    0.08256640633977   -0.66142970707005
H         2.44926042889024    2.25494822038443   -0.68775565362474
H         3.91626686827621    1.90622527886872   -1.51573279985664
H         2.33018053604795    2.95689462733362    1.45503179025194
H         3.88349025859155    4.66486075171642    2.52503230372191
H         3.25004048408628    3.13873370696930    4.47490883206189
H         4.79970786017697    4.08153053432845    4.46640037226789
H         5.82461973668846    1.90413756399665    4.49301508227992
H         4.50663609101986    1.29558487072626    3.60624843468983
H         6.32558605604859    3.80043484466211    2.35556074925409
H         7.32898512400874    1.90597568098510    0.25768858653401
H         6.14594322263637    2.26129799435658   -1.07533371802701
H         6.52039997785544   -0.16244077371820    0.74730933929608
H         5.72211173621891   -0.09736152415634   -0.82916094404658
H         3.35927551228393   -0.79124071716220    2.33376195882642
H         5.08415315464992   -1.16539267889484    2.21200471022228
H         3.26504314137813   -2.56081151887011    0.53240193532768
H         4.98769739396127   -2.17066785685304    0.26565268646958
