36
 energy: -47.844534254727 gnorm: 0.131849999043 xtb: 6.4.1 (79825abcba525fcdf90b791dcacef51065a7a4e7)
C         1.64083866279197    0.06855216799959    0.40463140367959
C         3.09898485692406    0.11530851797439   -0.10778652933404
C         3.40988042882794    1.55696816698021   -0.46514503900669
C         4.17671981985839    1.74988914620711    0.91461182904833
N         3.40944137164641    2.33103154811229    2.00917573366785
C         4.07001533836756    3.63487122945524    2.31110514255888
C         4.11978316108473    3.92090929621518    3.84892145326676
N         4.57996996697406    2.76482911648105    4.63404083636006
C         5.45470858013047    3.57892975079998    1.70784690220952
C         5.43078697517576    2.46154768892332    0.99486952665667
C         6.37731694091899    1.72255140781329    0.15704571800748
C         5.77085038399753    0.31622184699462   -0.06943715324587
C         4.46607992117302    0.25585389670449    0.86283523609895
C         4.51291674698644   -1.11260869707354    1.54362392024094
C         4.02342231259640   -1.93981237238253    0.34394841055219
O         3.49378257332988   -1.11907158808876   -0.72614498597061
H         1.42894989526093   -0.90396818808119    0.86200261039146
H         1.00094496020158    0.22341116291524   -0.46532393848781
H         1.40783158962570    0.84517525705227    1.14788375833287
H         2.61073831257703    2.25140011871272   -0.74611258043298
H         4.12341640726076    1.60964735373398   -1.29990204181822
H         2.40536429687646    2.32526682331409    1.81160703580711
H         3.44728929775204    4.39633491299440    1.83437454270426
H         3.17502872305848    4.24384286992072    4.30091247594244
H         4.78673458520679    4.74385449648749    4.14088674728736
H         5.54757862201411    2.57721684064373    4.36700427662689
H         3.98670998487187    1.99743036366293    4.31056033114513
H         6.31884127843207    4.16153165038733    1.98242920412826
H         7.36839726547057    1.69844601628987    0.62555822529818
H         6.47181260737554    2.26388210032528   -0.78998697595645
H         6.41926474623932   -0.52646051757211    0.21163145017383
H         5.53933122618173    0.25315725078304   -1.13742393307299
H         3.83871144961812   -1.10052693442843    2.40439894507427
H         5.50138435205568   -1.45821968038148    1.87634766533463
H         3.20922804732760   -2.62826619319422    0.60606087317728
H         4.86935822300677   -2.49936465543220   -0.06068068720245
