36
 energy: -47.841912825533 gnorm: 0.131625476104 xtb: 6.4.1 (79825abcba525fcdf90b791dcacef51065a7a4e7)
C         1.77170821400800    0.09580541134143    0.54849512958559
C         3.15761912104454    0.09798081674878   -0.13721244717647
C         3.45026252329457    1.51905736606370   -0.58178527699323
C         4.07203613150958    1.81643753089757    0.85137652149572
N         3.23387651178343    2.56957979640762    1.77591860925423
C         4.05725870427789    3.68486806034424    2.32881198328826
C         4.17804133356300    3.68116452451481    3.88912331050563
N         4.58770467709715    2.36562075810882    4.40509449086002
C         5.40083340589516    3.51885151297197    1.65674738354337
C         5.30848882575166    2.55575056626778    0.75045789430857
C         6.37208122735358    1.81047702486029    0.07420222820653
C         5.88658860900831    0.35142305086201    0.25397269465756
C         4.43284617661710    0.33940289261501    0.93345083965972
C         4.27421745054988   -0.96508210624003    1.71544360674154
C         4.06139706131367   -1.85059927472091    0.47703378249406
O         3.53498244607288   -1.17239616587672   -0.69008308109892
H         1.67981583849383    0.87503952798770    1.31284524833968
H         1.61577818393626   -0.88596785337408    0.99802226484706
H         0.99735780958961    0.17804662322059   -0.22834309207818
H         2.60540999618781    2.12806313458047   -0.92111227225194
H         4.12156225134056    1.58964022058858   -1.44960017282257
H         2.45474047054181    3.00489878028419    1.27523727690552
H         3.61334362595821    4.59648635737093    1.92042711901728
H         3.13863965298300    3.78502367908988    4.22078629801064
H         4.86249812955562    4.52896158921733    4.03077696498118
H         5.60155421344148    2.25153983533426    4.44831554533942
H         4.23972694399489    1.64693756439037    3.76642098040520
H         6.11559248336460    4.32540828056777    1.64528684352286
H         7.33248150765258    1.88794708268721    0.59760926828722
H         6.45403031683671    2.11385174408948   -0.97464828240830
H         6.57439002269549   -0.23432340552667    0.88117650530583
H         5.86899748816917   -0.12984202162502   -0.72900671213985
H         3.49509289903940   -0.97966390074077    2.48250599882336
H         5.15831929656857   -1.34289846998861    2.24726968383669
H         3.36895535451802   -2.65797521876673    0.74952686800735
H         4.96864486449416   -2.41145442260815    0.24299540377905
