36
 energy: -47.837430685374 gnorm: 0.131057417578 xtb: 6.4.1 (79825abcba525fcdf90b791dcacef51065a7a4e7)
C         1.72262734004161   -0.11500745858804    0.43287630091989
C         3.16378020121569    0.00774246414909   -0.11389562811761
C         3.52368855334647    1.42820449801609   -0.50822710433670
C         4.16247015034512    1.71564817629644    0.91947186059035
N         3.26760379194104    2.46185755177497    1.79519936584770
C         3.95155415349981    3.70999262098719    2.24451884275397
C         3.87546470571987    3.91358542452992    3.79433624301387
N         5.00294832125553    3.32685304496315    4.53543780889079
C         5.35390239486462    3.53760313005881    1.70774459753987
C         5.42748620620730    2.40446872278862    1.02360758506253
C         6.46515379736532    1.65738539669503    0.31009818704152
C         5.80815914201024    0.26408493374389    0.15540220825851
C         4.42921966283642    0.21754109306154    0.97489086655947
C         4.20911475727562   -1.16723314982720    1.58506379148090
C         4.02373187200011   -2.01228891071829    0.31439230752089
O         3.49474368153537   -1.22146202294997   -0.77830980471471
H         1.12412474393357   -0.75671241491508   -0.22278406271487
H         1.07123833064085    0.75761170904672    0.49992636882441
H         1.74598654090435   -0.48344376150691    1.46900796565795
H         2.63620751056363    2.03197996360364   -0.72649119634463
H         4.18600919588131    1.58515323691608   -1.37160791295921
H         2.36110066731328    2.75503114508509    1.42165054463289
H         3.51472283567408    4.61345662672828    1.81113920132731
H         2.95873758330089    3.42023520641988    4.13691450293402
H         3.93052069282323    4.99977981683183    3.95072457392372
H         5.88994781445169    3.75307335797403    4.26278135266306
H         5.12317334994846    2.37739631040978    4.17547150409149
H         6.21185346563172    4.16750008243357    1.87714206934742
H         7.38978311668956    1.59246093582115    0.89590589955906
H         6.62322696871743    2.28621543119471   -0.57218573819285
H         6.47967516271008   -0.49226151647524    0.58732881482776
H         5.57792400184122   -0.01778092764604   -0.87693370817127
H         3.41735693716031   -1.13874744780799    2.33868208011787
H         5.14570425821460   -1.54365792908173    2.01902777658730
H         3.36923421667346   -2.87840414154566    0.47889501948043
H         5.02110399848754   -2.26725882411641   -0.04984692830516
