36
 energy: -47.841784250344 gnorm: 0.125984465552 xtb: 6.4.1 (79825abcba525fcdf90b791dcacef51065a7a4e7)
C         1.73411823960292    0.03931996082015    0.48845010021739
C         3.15442673818140    0.14526211499639   -0.11358701917674
C         3.39267603399517    1.60180502893991   -0.46638121214539
C         4.13800060518040    1.73448428137130    0.93214575248952
N         3.52666227418521    2.36747013882854    2.09408691503538
C         4.06989751902706    3.73861640259763    2.32293322973611
C         4.14599519453851    3.89051292437082    3.87866784772605
N         4.52091241380356    2.60894851654103    4.49651529376500
C         5.41111030373755    3.53346240111526    1.65698621326999
C         5.40464419783684    2.42813261754600    0.92510104320138
C         6.37203751449434    1.77876824994513    0.03827563226715
C         5.90940574305231    0.30226298519683    0.09084056553936
C         4.51045417243575    0.25913239974468    0.87587328778851
C         4.25522505991645   -1.08016622731900    1.56832846405078
C         3.99790025742116   -1.91241423966403    0.30174279336562
O         3.52762148876357   -1.07079768002221   -0.77980841856133
H         1.61211949164675   -0.74536276092349    1.24295023621024
H         1.01679712097634   -0.20752539597347   -0.29563238777992
H         1.62686818251824    0.98538822888413    1.03918782970924
H         2.57579424884951    2.29619718749954   -0.69072541522232
H         4.06804930154840    1.62351518317268   -1.33363410748197
H         2.50703856053860    2.45467610456746    2.09413660814888
H         3.40434228474200    4.47679886725454    1.86795014219060
H         3.20085526908704    4.25077718034472    4.30064309364355
H         4.95013714924523    4.59179567650177    4.14108917131651
H         5.38122122126787    2.32554285276955    4.02500348700520
H         3.72729063361472    1.99684550805819    4.29404982494438
H         6.21204855840446    4.21819338923801    1.88323190749005
H         7.42059611118179    2.00956804794923    0.26094485315218
H         6.20868019558310    2.14959516604892   -0.97889743992806
H         6.67657634458390   -0.33551456706706    0.55370489679754
H         5.86408448996865   -0.09828850847784   -0.92684235481913
H         3.36456188786112   -1.14886318990696    2.19890935036686
H         5.14909373826508   -1.44373669717933    2.09371932439899
H         3.36030679625665   -2.78692543233040    0.48691479095261
H         4.96082352179179   -2.30406651680543   -0.03264966467279
