36
 energy: -47.836963555090 gnorm: 0.152950107037 xtb: 6.4.1 (79825abcba525fcdf90b791dcacef51065a7a4e7)
C         1.78677828448212   -0.04346839405202    0.56806120342431
C         3.14275206548328    0.12285114088895   -0.15624640525201
C         3.34821402423207    1.54453021645902   -0.64548831820809
C         4.07000935033045    1.84252628639184    0.73986351981263
N         3.30974377382168    2.49991083284895    1.79549337429691
C         4.06190542720261    3.71256697930113    2.23279763655546
C         3.97300044785143    3.80892973194076    3.79227947970076
N         4.62537274355541    2.65661840124736    4.43360207102528
C         5.48200882450417    3.42305742293980    1.80394368864589
C         5.36085218313672    2.47306466512470    0.88727244566885
C         6.39749461194520    1.65240842129508    0.25808350852754
C         5.82984376477728    0.22517998284080    0.06404647008029
C         4.45101809423565    0.37416750611916    0.87141528280507
C         4.38052416501465   -0.93262444938616    1.66241589258409
C         4.05628425312670   -1.83286414624351    0.45928291199128
O         3.64190450518351   -1.09991162370007   -0.71982843666267
H         1.96968304815007    0.30324284324612    1.59090932216653
H         1.40842953940394   -1.06564180792607    0.52029836075190
H         0.94813583346716    0.48023205209989    0.08611052457029
H         2.45287063419971    2.16051528022848   -0.78234288018257
H         4.08125257252591    1.75599665789309   -1.43710964222226
H         2.34491805593604    2.70616082675244    1.52381416842689
H         3.66232131487001    4.65216681113248    1.84244992159111
H         2.93296386814039    3.75811727188694    4.13416381505139
H         4.46730843806622    4.71810546656412    4.16155687955290
H         5.63384803236506    2.62160370358384    4.27699761621631
H         4.24474913536157    1.85839090603238    3.92032201204673
H         6.34477820841422    3.92341457781699    2.21237640100397
H         7.32617628812155    1.61018534821362    0.83954091199737
H         6.67909538422065    2.04788626655116   -0.72331216537433
H         6.40219467147059   -0.61136779205083    0.49084445071458
H         5.79218591722196    0.04398193905579   -1.01480621926537
H         3.64408520922712   -0.77350140665500    2.45486138446369
H         5.35563779929208   -1.22966427461452    2.07246579201870
H         3.14968075290207   -2.36541768281822    0.77557505876772
H         4.84968221414403   -2.53323498644574    0.19015212974714
