36
 energy: -47.842644257212 gnorm: 0.136633045407 xtb: 6.4.1 (79825abcba525fcdf90b791dcacef51065a7a4e7)
C         1.79717594390339   -0.07212857552308    0.48717886757259
C         3.20409096741676    0.09018161028201   -0.13346125851970
C         3.45165739952040    1.53620195179556   -0.52137844972343
C         4.13886849146800    1.76984615866382    0.89359202025464
N         3.35472193705681    2.41636855824159    1.93840580879641
C         4.01749333651423    3.70800520550387    2.28470926784700
C         4.09638255487801    3.95044884560467    3.82878542716933
N         4.72559606459689    2.88615624410695    4.62632999658525
C         5.35836593866652    3.58874645176439    1.59749508606378
C         5.37987362797683    2.50592725757112    0.83297456501901
C         6.40745192194948    1.74464744366753    0.11986932411219
C         5.92523121365632    0.28091319861189    0.26753194783293
C         4.47410037276717    0.28570258706168    0.95265852338802
C         4.24822700617552   -1.11874030117768    1.51379866704087
C         3.98464411617613   -1.98781134233416    0.27350367700644
O         3.48452142258066   -1.15119441596235   -0.79849585051222
H         1.72846234778662   -0.04411439484428    1.58005341073520
H         1.43981066874293   -1.04104178291333    0.13537662508042
H         1.14356678730105    0.68744468880673    0.03363359654735
H         2.54944891423619    2.12598670544875   -0.71626411042591
H         4.25639116774751    1.58933085398457   -1.26857911294398
H         2.35893145719487    2.55530355912394    1.74778633998369
H         3.50877839567542    4.59805656390319    1.90536192103318
H         3.08499215390186    4.07196834943346    4.23309395713633
H         4.56751624698633    4.90739071506226    4.09260740726056
H         5.67035800011935    2.64125602229301    4.32595994692384
H         4.16759896476177    2.05762341239786    4.40799430917789
H         6.18389725056769    4.28007832173674    1.64336461489106
H         7.37255657481549    1.78888653851957    0.63846468561479
H         6.47902444468489    2.01681138398674   -0.93826272688578
H         6.59824919295937   -0.27150472653070    0.93942148348832
H         5.63384612560932   -0.26829354346185   -0.63337909579291
H         3.42128229997833   -1.21534362152775    2.22264467332675
H         5.18973252979962   -1.36104400608438    2.02573275302310
H         3.19308302889022   -2.68278232928195    0.58339121738685
H         4.83451509469753   -2.41555447924740   -0.26239385778397
