36
 energy: -47.841311455512 gnorm: 0.144893924898 xtb: 6.4.1 (79825abcba525fcdf90b791dcacef51065a7a4e7)
C         1.90910457450202    0.10410230356487    0.67984623515643
C         3.18316400853212    0.18024577905190   -0.19303598886490
C         3.38672423759787    1.65557037298456   -0.48411037216899
C         4.11473901193804    1.81404614053553    0.92083448220038
N         3.29025467539901    2.52211225555589    1.89211242097125
C         3.98516822945434    3.77955873397123    2.29639046163778
C         4.16765445560218    3.58595320009321    3.83859319213239
N         4.64878842720069    2.26608537620420    4.27581709626647
C         5.31743351439743    3.68771211468414    1.58853545281492
C         5.37347743568703    2.52077685292997    0.96197916680540
C         6.48334899299260    1.76983904350936    0.37184297982634
C         5.84743037952112    0.38439576173056    0.10163300735307
C         4.45524093603930    0.33010393279665    0.89791375701104
C         4.28048558588439   -1.07441615084453    1.47682718879945
C         4.00494341584381   -1.91517636836567    0.21973099445391
O         3.48244775228668   -1.06927950206112   -0.83416195603733
H         2.18152789508936    0.17295827501808    1.73858393114569
H         1.45154200878877   -0.86508503933867    0.47593460214112
H         1.21518012036653    0.91193886939933    0.40465771440176
H         2.49124113650007    2.28216748606830   -0.55686129831273
H         4.05253178151255    2.05179150054712   -1.26413414320253
H         2.29688952509152    2.55974427071053    1.64911673938164
H         3.29104377308546    4.61763757919589    2.19294091612585
H         3.12770545318396    3.72600248914588    4.15487657951174
H         4.82066285471551    4.38743384340145    4.21076994572804
H         5.45543443678484    1.94542809953831    3.73797462443655
H         3.87119074483454    1.60246157787178    4.25476508297738
H         6.08765676364835    4.43189857442110    1.70890309505621
H         7.33938394374567    1.61154460505971    1.03853051916247
H         6.84442150424050    2.32384954459462   -0.50081862363869
H         6.51384900286540   -0.40718826849804    0.47423903847529
H         5.76539200231352    0.25495622661655   -0.98219776437139
H         3.55542519112109   -1.13088706206189    2.29336308314553
H         5.20886159331482   -1.41729003955826    1.95408574922157
H         3.33101690389543   -2.73994372395462    0.48650014871167
H         4.90795457495171   -2.44936613057671   -0.08299525432262
