36
 energy: -47.845444686479 gnorm: 0.135255248827 xtb: 6.4.1 (79825abcba525fcdf90b791dcacef51065a7a4e7)
C         1.84711216766352    0.10554705439634    0.61919336793516
C         3.14061924836445    0.18206350259059   -0.22456801375096
C         3.46817195587241    1.64766413365016   -0.44243879461773
C         4.11742142077591    1.69768666486811    1.00841019303168
N         3.37053750012046    2.28359431227995    2.11447945257676
C         3.91245649752186    3.66786745596619    2.24725283502449
C         4.09683154171941    3.94975615376359    3.77555846864376
N         4.70523273591158    2.82426704624038    4.50207614960338
C         5.29120849227136    3.54882177506176    1.63955535946015
C         5.37058104176302    2.41375913041643    0.95927294706636
C         6.47983926261739    1.64047835529794    0.39752035228293
C         5.79417641016201    0.29349637092950    0.06231166418720
C         4.41329893737255    0.20994924929729    0.87557618529497
C         4.25792599379254   -1.20172827122500    1.44248214168868
C         4.05813427591617   -1.92478059050097    0.10070324603856
O         3.50110130325705   -1.03426785326006   -0.89726212305555
H         1.41434763614593   -0.89994033862595    0.57930511660276
H         1.05823988907472    0.71625293119157    0.17762070932472
H         2.01545374695536    0.40039891801148    1.66541670389278
H         2.63190373128025    2.32812347148421   -0.63592551046964
H         4.15557406111902    1.99562448345279   -1.22674092636965
H         2.35300121038512    2.22289965824674    2.02407275486320
H         3.24767624952007    4.42414420498172    1.82181264983730
H         3.12676151292964    4.16850211836726    4.23627230225572
H         4.67762356626336    4.88050706843465    3.83630438575611
H         5.71944910965920    2.83045731941928    4.62082049849135
H         4.56918045198024    1.95825896749841    3.97575147071354
H         6.17204607193278    4.16443071180652    1.72138682946506
H         7.26886472123549    1.52517445834404    1.15016170132752
H         6.86311616685523    2.03993517561844   -0.54713421825913
H         6.46651759206491   -0.51423351817163    0.38647832161154
H         5.59544985165360    0.17221978395713   -1.00725540499626
H         3.36142188346302   -1.23138187914286    2.06780874940020
H         5.08341298249154   -1.70661514664743    1.96294408405832
H         3.31371400957419   -2.71553919519921    0.26232994976835
H         4.94588472513452   -2.37058517841026   -0.35271534941683
