36
 energy: -47.848158939754 gnorm: 0.133867528689 xtb: 6.4.1 (79825abcba525fcdf90b791dcacef51065a7a4e7)
C         1.91279668561225   -0.02817451244524    0.73568336967494
C         3.24075409589690    0.09926622536109   -0.04613273010493
C         3.44737935783280    1.50724204724713   -0.57306116093357
C         4.14214687041875    1.81571927781043    0.82376738108664
N         3.26166277319666    2.51302208622124    1.75276114564805
C         3.98524226597093    3.75722892574641    2.14760197649451
C         4.12997870517823    3.76289606866861    3.70586795486311
N         4.29506811087181    2.47822873669797    4.40377988240246
C         5.36954800630525    3.59807303953413    1.56211726106626
C         5.39269529057994    2.53594746597639    0.76914493221106
C         6.39869734490101    1.77301295842291    0.02761002564988
C         5.88048946525257    0.31822876730119    0.13680041508917
C         4.53053693364840    0.35444316200920    1.00370219225714
C         4.32907622062217   -0.96112903063408    1.75672291393940
C         4.06648184805704   -1.88183422382457    0.55404333964206
O         3.71078189132470   -1.12571361632283   -0.62959203244408
H         1.46983735756813   -1.02718445926732    0.66053539511634
H         1.17291576558991    0.62322460738223    0.26821902290241
H         2.01878452259881    0.23734663518896    1.79781557404485
H         2.60433216756794    2.17026891532110   -0.79548722269218
H         4.16654116096672    1.62296931153478   -1.39655456297869
H         2.38869737295067    2.71044737617392    1.25658371805476
H         3.53339543862762    4.70246729585211    1.83575970846404
H         3.25396067350733    4.13492387589685    4.24931127371496
H         5.04172055914729    4.33034749995422    3.93831665075229
H         5.17300388199721    2.03361979356081    4.13115363627444
H         3.54015554550909    1.81042523304443    4.23160732171438
H         6.09047727631500    4.36013810848915    1.80922767653863
H         7.44021977643963    1.80828549644795    0.36865566281107
H         6.28522652567187    2.16462763340103   -0.98856003316766
H         6.59294203066031   -0.35419967472693    0.63660601014629
H         5.73908503363332   -0.07681298205228   -0.87419949411413
H         3.45948623373107   -0.98667343766948    2.41913751309076
H         5.24357087000532   -1.32501965780841    2.24509096898309
H         3.18892260130768   -2.49714523016583    0.79250932521761
H         4.87949176316312   -2.54146632709788    0.24367036869551
