36
 energy: -47.844967086359 gnorm: 0.138559716627 xtb: 6.4.1 (79825abcba525fcdf90b791dcacef51065a7a4e7)
C         1.77230057256500    0.10168298437606    0.52821330470824
C         3.16560606570143    0.11123388077411   -0.14227699414620
C         3.44041538780462    1.54356832027194   -0.56137318404588
C         4.08248287773580    1.85598605032401    0.85958939146934
N         3.28851724746211    2.50636954054748    1.89454484774971
C         4.02640147559719    3.71440754526028    2.36750180609862
C         4.10245039513962    3.50269625794073    3.91623306140102
N         4.94177722826996    2.36114913442838    4.31259949727655
C         5.33314944205307    3.63978578508830    1.61167995630339
C         5.33953019425468    2.56643845890371    0.83364626119987
C         6.46495200352379    1.78482035325508    0.31742722313965
C         5.87313426701265    0.36637669032794    0.13134026719138
C         4.46205498648776    0.38181084370546    0.89542086207679
C         4.27101705805586   -0.95257183947653    1.61742102828611
C         3.99588209693976   -1.84453873262096    0.39603333808659
O         3.46056793527783   -1.15180771795008   -0.75843453442844
H         1.58305924272757   -0.91320144964571    0.89438051431286
H         1.06402854850664    0.27598578779858   -0.28310465772106
H         1.59373534745564    0.92356262274754    1.23707726238485
H         2.52406951309424    2.08471641377642   -0.82074861014995
H         4.21062225419220    1.66600723561940   -1.33630418063217
H         2.34762972789232    2.67475354570395    1.52901113432971
H         3.47808520622277    4.62919066859814    2.12790248939891
H         3.07979457901448    3.30338114367552    4.25622054035582
H         4.46117939733046    4.36959200385690    4.48817012279370
H         5.78472574426970    2.49898288312277    3.75294509040241
H         4.42504126101883    1.59205179040057    3.88019794348246
H         6.05011422325234    4.42696739950807    1.77857013323084
H         7.26987475458884    1.83343309225434    1.06043557489038
H         6.85576063401519    2.09231704665837   -0.65804890531398
H         6.50863993441629   -0.44105930095162    0.52342953033002
H         5.76790592050381    0.13672680606801   -0.93372403206695
H         3.29097347043587   -0.94432828753689    2.10227050121713
H         5.01534573935300   -1.23796652201483    2.37355921116188
H         3.23359901128810   -2.56121733522734    0.72902011440253
H         4.87147056844967   -2.33431657979886   -0.03512037910926
