36
 energy: -47.810242808687 gnorm: 0.100053376726 xtb: 6.4.1 (79825abcba525fcdf90b791dcacef51065a7a4e7)
C         1.73300000000000    0.04625000000000    0.54282000000000
C         3.20001000000000    0.04060000000000    0.05415000000000
C         3.32899000000000    1.35651000000000   -0.69049000000000
C         4.06725000000000    1.86710000000000    0.62224000000000
N         3.27379000000000    2.23086000000000    1.78955000000000
C         3.99583000000000    3.39087000000000    2.39001000000000
C         4.70160000000000    2.96522000000000    3.72038000000000
N         3.81772000000000    2.28353000000000    4.67890000000000
C         5.04699000000000    3.78593000000000    1.37837000000000
C         5.09939000000000    2.85910000000000    0.43196000000000
C         6.15871000000000    2.32511000000000   -0.42634000000000
C         6.06707000000000    0.82077000000000   -0.07219000000000
C         4.69502000000000    0.48140000000000    0.68775000000000
C         4.92654000000000   -0.78220000000000    1.51725000000000
C         3.96915000000000   -1.86035000000000    0.98425000000000
O         3.48437000000000   -1.32831000000000   -0.27319000000000
H         1.32056000000000    1.04405000000000    0.72767000000000
H         1.58248000000000   -0.53566000000000    1.45331000000000
H         1.09642000000000   -0.39027000000000   -0.24081000000000
H         2.42491000000000    1.90898000000000   -0.96838000000000
H         3.92457000000000    1.26759000000000   -1.61033000000000
H         3.21033000000000    1.51287000000000    2.51598000000000
H         3.27701000000000    4.19186000000000    2.58132000000000
H         5.14107000000000    3.84784000000000    4.19891000000000
H         5.52729000000000    2.27311000000000    3.50468000000000
H         3.03778000000000    2.90098000000000    4.90960000000000
H         4.32942000000000    2.14500000000000    5.55324000000000
H         5.79267000000000    4.53751000000000    1.57995000000000
H         7.14665000000000    2.74619000000000   -0.20500000000000
H         5.93441000000000    2.50405000000000   -1.48299000000000
H         6.90626000000000    0.61689000000000    0.60880000000000
H         6.20177000000000    0.19034000000000   -0.95683000000000
H         4.84449000000000   -0.61307000000000    2.59442000000000
H         5.93748000000000   -1.17836000000000    1.34909000000000
H         3.13290000000000   -1.98383000000000    1.68498000000000
H         4.43680000000000   -2.83777000000000    0.84866000000000
