36
 energy: -47.841632286422 gnorm: 0.127199856141 xtb: 6.4.1 (79825abcba525fcdf90b791dcacef51065a7a4e7)
C         1.80668193140901    0.10594982209673    0.54921870056752
C         3.19704699879295    0.18129725080663   -0.12320702477448
C         3.54562943283251    1.58631085545913   -0.57836714135954
C         4.16058808660399    1.77162132199575    0.87644411926690
N         3.24265032486162    2.46284068467958    1.77317075219970
C         3.92283228518741    3.68963839213324    2.28291282895766
C         4.09905746974977    3.65910275076093    3.83764295382876
N         4.68682045754339    2.50799296849535    4.54062703545908
C         5.31819655997078    3.62587628524475    1.70557575189397
C         5.37948621947871    2.54327827088489    0.94289856971980
C         6.37680883334444    1.82813173017964    0.14421466534832
C         5.93837605200648    0.34333024649166    0.14457586858080
C         4.52528069102733    0.29350721978890    0.90344415486830
C         4.40739964070101   -1.09097278494382    1.54193905533105
C         3.82493102907189   -1.94674831446088    0.40551019786883
O         3.49791853856841   -1.09102685597022   -0.71700357233507
H         1.46048130185939   -0.91846397575172    0.72415470527864
H         1.18183105621104    0.50414645693297   -0.25157364399898
H         1.73547367625038    0.62782040674627    1.51484816101744
H         2.79605739046313    2.35415443538134   -0.79828659382148
H         4.26180463917506    1.60730449728429   -1.41226176435919
H         2.28810497328440    2.59434294645472    1.42851492627060
H         3.49329319038389    4.65177609996262    1.99192511488254
H         3.07179377796457    3.72838644184304    4.21323844699828
H         4.75927233078779    4.49660248938101    4.10225064819567
H         5.64838792137734    2.24226321462682    4.32256946902026
H         4.12920248420524    1.68141548693995    4.31406634582932
H         6.11181600142670    4.33253482811804    1.88542979675698
H         7.39619751501970    1.93076129904367    0.53490515054754
H         6.37328636481397    2.33539616159064   -0.82609950564116
H         6.70915648318316   -0.27837464834575    0.62304719385807
H         5.79504280260735   -0.08629235810898   -0.85194506628461
H         3.74278202458198   -1.20706397302811    2.40242646136729
H         5.44154637305401   -1.40845812742788    1.73419870329415
H         2.91179705898992   -2.41880385681960    0.79142963657503
H         4.49303851934024   -2.75415136780004    0.09864914538715
