36
 energy: -47.841170823347 gnorm: 0.134286779821 xtb: 6.4.1 (79825abcba525fcdf90b791dcacef51065a7a4e7)
C         1.76793666484141   -0.00264620768554    0.47970325144741
C         3.13554142526068    0.20083947540126   -0.21253904514802
C         3.48173573303360    1.63149883087064   -0.58146583551449
C         4.12211527854536    1.81300065613124    0.86281981706675
N         3.24168810066189    2.44322818016196    1.83861378460399
C         3.91741696786503    3.69046261101628    2.30263305859942
C         4.09991650670852    3.64476402148325    3.85626720748306
N         4.96930975356571    2.58499476019810    4.39082326728794
C         5.32263645011854    3.56998463196584    1.75924697699395
C         5.38831728815631    2.49690907554038    0.98358838731672
C         6.43969661927840    1.71130905573855    0.33442195729157
C         5.79967664280609    0.33516921227180    0.02868931691947
C         4.42676214575245    0.32111267142064    0.85941798140065
C         4.32251760132428   -1.00064987599002    1.62127979822787
C         3.90623210335052   -1.83045748851254    0.39603789765125
O         3.51516914646460   -1.06633126394514   -0.77118719904384
H         1.68175599087970   -1.08961913089514    0.58431618595663
H         0.91381975234630    0.30236121003504   -0.12669787460085
H         1.56292341807334    0.62493980224787    1.35945613939213
H         2.54605044204386    2.20033275659182   -0.60843946631979
H         4.27081554496669    1.76533661062064   -1.33523529758237
H         2.27198257986604    2.43592202130255    1.51172673145105
H         3.43404471140451    4.60044954192666    1.93771977702657
H         3.14292637428841    3.49314137479231    4.36844232895727
H         4.53041166253451    4.60582757599038    4.16985527252123
H         5.85643103151415    2.73984062553163    3.90935469049183
H         4.58809821060754    1.66478138059207    4.15977569710281
H         6.06759793271842    4.23148391011812    2.17033904298701
H         7.30705649797656    1.62810685141372    1.00007156599708
H         6.88587311904807    2.13688799130795   -0.57036989422195
H         6.55599650331678   -0.42192283860809    0.28235475847537
H         5.66590463843719    0.21218188524843   -1.05073328069617
H         3.53631528612887   -0.96797259702687    2.38052313659448
H         5.23735561150441   -1.41673420818342    2.06531292311997
H         3.07781343154019   -2.52485071776553    0.58871494225406
H         4.72881609378029   -2.47783160368577    0.08508234982037
