36
 energy: -47.838849937239 gnorm: 0.134251885585 xtb: 6.4.1 (79825abcba525fcdf90b791dcacef51065a7a4e7)
C         1.70592630049630   -0.09901236569384    0.43671472361211
C         3.05772697756756    0.28801283327217   -0.20655433640990
C         3.36410871258528    1.76778403826137   -0.34494199377666
C         4.13529242411067    1.72845601325463    1.04528070909482
N         3.45306300559362    2.29018608519372    2.20439039729998
C         4.04086367764318    3.63903201943637    2.45463481054884
C         4.17110631216513    3.87543537756506    3.99616778919312
N         5.02340046516621    2.91547352975084    4.71503749312238
C         5.38739644154277    3.46990754799305    1.78929898472516
C         5.44708228074765    2.32797173398182    1.11857411630238
C         6.47771207368078    1.51432713105191    0.47067912216611
C         5.68717310269743    0.31173417583168   -0.10000234980342
C         4.38171424581757    0.24126463089535    0.83059601445905
C         4.17189758775684   -1.22383141677331    1.21507934533617
C         4.01407445693891   -1.79860185472198   -0.20189732205171
O         3.45721151229376   -0.78436122804936   -1.07393699454758
H         1.66874183753188    0.29966670707632    1.45629965599003
H         1.67107327545523   -1.18560370250228    0.34521556236654
H         0.84393333232142    0.22431531691871   -0.16518819376368
H         2.53384765088639    2.48225087265279   -0.34815929837953
H         3.87011776955726    1.91343487356964   -1.31006822512001
H         2.44755005237603    2.10878281485423    2.26160894959035
H         3.39969662423191    4.42127668473382    2.04004486249857
H         3.17438130865703    3.80729294837487    4.44676605595075
H         4.54866055996980    4.89626457266159    4.14672434727816
H         5.98337702837616    2.81864076120384    4.38060990144518
H         4.55037268435155    2.00990966411322    4.75622843854208
H         6.13385881195479    4.21087060735436    2.02448701313641
H         7.34265045003159    1.28442516210309    1.10420256083443
H         6.96260219457971    2.16551892569540   -0.26394329480989
H         6.29827013107795   -0.59676056477017   -0.20369447014696
H         5.39012974956884    0.44217809283620   -1.14543224587109
H         3.29576807172030   -1.38041657026405    1.85030416489497
H         5.02685689364974   -1.55163297417540    1.82237744342342
H         3.35452861179511   -2.67540735221154   -0.24426847869833
H         4.93333701868525   -2.08361171671217   -0.71780114879445
