36
 energy: -47.840734677683 gnorm: 0.138309875572 xtb: 6.4.1 (79825abcba525fcdf90b791dcacef51065a7a4e7)
C         1.97409809691081   -0.48837785370869    0.63166634753829
C         3.17915369005079   -0.01217429635640   -0.21214629799875
C         3.22902736875840    1.50377648037328   -0.25850913366654
C         4.12342285869553    1.55302951858477    1.05550027901168
N         3.53502566287060    1.78453841872442    2.36878050064047
C         3.93368341959269    3.17621158237294    2.73187126390495
C         4.19768764732287    3.39688835640655    4.25855951820161
N         4.01518984062534    4.81768138798856    4.59433830813474
C         5.23365957414345    3.36046907615544    1.98318152097154
C         5.19965044013927    2.51177241190111    0.96533639271715
C         6.10606421683891    2.06929308291379   -0.09608201492427
C         5.90052933931701    0.53805803539713   -0.19574904696291
C         4.60228945309563    0.16035150172770    0.66860786528290
C         4.77207026928089   -1.31440902846436    1.03550349446015
C         4.33318044112627   -1.98501433923419   -0.27627248614175
O         3.59227253184117   -1.05698652148784   -1.10636488028207
H         2.22506732043040   -1.44280547562430    1.10702249939287
H         1.19252710894667   -0.78125472264234   -0.07092704919958
H         1.75072032606750    0.28711519392518    1.37904354816812
H         2.25772917977692    1.97772365529578   -0.08029447156402
H         3.71439442024091    1.90425385740050   -1.16004370341952
H         2.54542172715102    1.58335831407570    2.53445464584170
H         3.20981832847419    3.89471442721945    2.33860335752884
H         5.23689483154476    3.14894342029463    4.50292529113838
H         3.58849259325605    2.79010709827425    4.94266812978857
H         3.01721256284804    5.00929029201446    4.49383569687313
H         4.59997011362845    5.43261086678547    4.02390719790752
H         6.06875734451426    3.98133348840371    2.26368941497744
H         7.11409205342987    2.25410860036183    0.29385166209776
H         5.97750075590023    2.60240401816108   -1.04376516589731
H         6.70134421590190    0.04419004602717    0.37376320796380
H         5.85569985463751    0.08205021095717   -1.18984217532141
H         4.06502201923738   -1.59201951334734    1.82204498539348
H         5.79361894331030   -1.55710974833472    1.35916201283775
H         3.71808201611600   -2.89397853963005   -0.24430531741083
H         5.27126508935790   -2.19144393880353   -0.79570970940221
