36
 energy: -47.846382714843 gnorm: 0.131592943879 xtb: 6.4.1 (79825abcba525fcdf90b791dcacef51065a7a4e7)
C         1.82691894304110    0.06255193071965    0.54428947864796
C         3.22646221450904    0.04700521366890   -0.11296658626550
C         3.48569018264769    1.45062046472297   -0.62814495763764
C         4.03742970339284    1.89451561106267    0.79576884744061
N         3.19335264831320    2.68247989968829    1.68523992588572
C         4.00578204521251    3.81349013834246    2.22216769149510
C         4.13027630659334    3.51539852883995    3.75344691967464
N         4.68061781674022    2.20365945853676    4.12917357225373
C         5.34426750725684    3.61881965566713    1.54764176149201
C         5.32242324089422    2.55262183883247    0.76011625914072
C         6.31894356298547    1.80153496461128   -0.00591161312009
C         5.88055831945762    0.36564548385866    0.37210778631684
C         4.41221708507593    0.43517632131427    1.01580134490694
C         4.27973095190216   -0.84126499142620    1.84736707960867
C         4.07386314762087   -1.86949141216168    0.72332932618368
O         3.68496661344264   -1.24925299076481   -0.52698956663895
H         1.54057737639097   -0.98372542463774    0.69658298948881
H         1.02882533332671    0.49649329736803   -0.05987029518226
H         1.93877895742466    0.66771495161854    1.45594996024299
H         2.52139823169767    1.94784383138443   -0.77886499926979
H         4.25331128922203    1.71223366218373   -1.37046852025201
H         2.42721614636453    3.02187263139078    1.09780077066966
H         3.62041839317791    4.83549369928909    2.17869094155429
H         3.11025337010925    3.43448121675505    4.14606440880959
H         4.72160516167303    4.30763810141165    4.23302313953381
H         5.67179437671007    2.15650746372162    3.88809452039019
H         4.17418698674597    1.49509128467638    3.59349004484223
H         6.21934195529512    4.20905837067214    1.76537683937235
H         7.35244854257579    2.12387128048381    0.16813412418057
H         6.14010173459025    2.03097001397198   -1.06147514075038
H         6.57943781719253   -0.13976236173004    1.05451867418671
H         5.80625489054226   -0.26261361047345   -0.52116904085701
H         3.28765410717368   -0.78756058254755    2.30401980020207
H         5.08387155683622   -1.06461158462896    2.56199590446778
H         3.29287623256858   -2.55002565197591    1.08735746192796
H         4.94987253254530   -2.47581117831897    0.48371523431889
