36
 energy: -47.845484233664 gnorm: 0.132379323708 xtb: 6.4.1 (79825abcba525fcdf90b791dcacef51065a7a4e7)
C         1.69228856428195    0.11107422318058    0.48623342867552
C         3.12735690303203    0.22882530669906   -0.07738186349923
C         3.40993662440828    1.62883611379662   -0.59008271086567
C         4.07049594455868    1.93979222283084    0.82270100770416
N         3.22756384744190    2.56354590475072    1.83507925254625
C         3.99289308730790    3.66219037056188    2.49444920039501
C         4.44057457480480    3.26232626485275    3.93973933677320
N         4.76557217719161    1.84142299278624    4.14002954187790
C         5.30066803027374    3.67383059362758    1.73681174257425
C         5.31532505806305    2.67032914810195    0.87065837877953
C         6.39586955707288    1.90151755668394    0.24990437848322
C         5.78215836711082    0.48683451636619    0.11246538335333
C         4.42444674611342    0.46593584980658    0.96767557926384
C         4.34739028294189   -0.90316802471951    1.64441315614859
C         4.01985649775876   -1.74407280189179    0.39994827268602
O         3.51635163700553   -0.98969370419865   -0.72993163687870
H         1.61431177217919    0.12618101641511    1.57874087762434
H         1.31712293090641   -0.81812094894067    0.05482336660465
H         1.07048951317129    0.83929921445339   -0.05498195317203
H         2.58768531714538    2.29669321184419   -0.86878742376732
H         4.13484327785542    1.61704993812227   -1.41658098011521
H         2.37629338393177    2.94856666243234    1.41754481868580
H         3.34607618195919    4.54052385594877    2.56547669064102
H         3.59630465514779    3.40520851919195    4.62379772625175
H         5.28152589068103    3.82733060887597    4.36503653418928
H         5.57749693617428    1.51177056227158    3.61573872569533
H         3.93290868131248    1.45096398048221    3.69313900724504
H         6.14284569271333    4.27217654430215    2.04383719575207
H         7.29184316842722    1.86105220012575    0.88071265936670
H         6.64889534074479    2.26844176834060   -0.75018754421222
H         6.44684734387731   -0.33147426504342    0.42569631914707
H         5.63777319340731    0.25994441108890   -0.94859438476821
H         3.53235794005910   -0.93764649906059    2.37253808955952
H         5.24933406425738   -1.18980160576539    2.20258773686226
H         3.32752911484654   -2.54831614078875    0.68183364350856
H         4.94087308892199   -2.19230495078999    0.02146787034947
