36
 energy: -47.841093400693 gnorm: 0.121204369562 xtb: 6.4.1 (79825abcba525fcdf90b791dcacef51065a7a4e7)
C         1.70975846187654   -0.12303903694564    0.22728843614316
C         3.16883431438958    0.13211491324540   -0.21649391585133
C         3.31136805995948    1.59921025934378   -0.57713100489684
C         3.99554752168785    1.93371941260768    0.81893211797564
N         3.32914442255904    2.52022586456083    1.97497276399217
C         4.16813100396264    3.63025840611411    2.51483063862931
C         4.40776972580481    3.46273763957733    4.05225826814114
N         4.70718140666821    2.12576439506776    4.58850534142451
C         5.38053012030118    3.57147779423728    1.61424273759963
C         5.25576250337279    2.62747747807639    0.69188267718989
C         6.20575380020172    1.91954423685232   -0.16854179300835
C         5.82746032462175    0.47014555847944    0.22260590432842
C         4.37633759076363    0.46209882443876    0.90771913738776
C         4.21448937882864   -0.82842337745463    1.71190470854928
C         4.11300222393973   -1.79534076112875    0.52116410217702
O         3.75945830848018   -1.08715297278356   -0.69238866995911
H         1.05632748439785    0.10636115363493   -0.62140740527778
H         1.47589203634844    0.58042084655810    1.02773721696239
H         1.61520296338072   -1.18959240435636    0.47904816469214
H         2.48894850962263    2.20550275262917   -0.97189946396725
H         4.13942135731871    1.77622921012233   -1.27835848474501
H         2.38903068994121    2.81730167401420    1.70080215436761
H         3.62897034206711    4.56644042756393    2.34823011450235
H         3.56409363987298    3.77223220754048    4.67960721862341
H         5.26637563182253    4.04877637035971    4.40815325903966
H         5.45902805405309    1.70681806126484    4.03897464189839
H         3.94327467407756    1.45605965010836    4.47257453707499
H         6.17923431159175    4.27303622170786    1.79153661715879
H         7.21356899520875    2.31156096242903    0.01299791543269
H         5.98469051484499    2.04980249709495   -1.23296796924765
H         6.61177516076490   -0.04632083222363    0.79502797163878
H         5.73352002981801   -0.11317092544411   -0.69885550382805
H         3.24208098075468   -0.77531620069382    2.20913094310435
H         5.05806962564456   -1.02809297581369    2.38697852850269
H         3.36572757579886   -2.56910163300790    0.74129730404805
H         5.06853855606828   -2.22789013421684    0.21738393159197
