36
 energy: -47.845825661041 gnorm: 0.147373413464 xtb: 6.4.1 (79825abcba525fcdf90b791dcacef51065a7a4e7)
C         1.71762779666779    0.02449550555570    0.61980729296816
C         3.12602078250186    0.09842024815929   -0.01415878195814
C         3.42219585105350    1.47017702509307   -0.59148659111403
C         4.09718568961453    1.90429799835520    0.78143650982456
N         3.25045700697618    2.64359029388148    1.70934292783584
C         3.98816060332732    3.83531183977713    2.22228580461103
C         4.11377518710678    3.57425500026413    3.76022075032400
N         4.69394809122024    2.26551346623286    4.09978033914615
C         5.34520922971737    3.66946100491317    1.57781871096074
C         5.37965615515000    2.56520731752148    0.84509174047311
C         6.45243423716023    1.77383122797662    0.23940678768252
C         5.79019173173196    0.37645060932250    0.16443168054332
C         4.42338278804007    0.43361598063116    1.00334019905970
C         4.37263400766272   -0.91314786987689    1.72584178671342
C         4.17849607147270   -1.87058697241802    0.53894966972034
O         3.44435396114460   -1.20739671809881   -0.51956231671849
H         1.52843410807339    0.98487763887750    1.11149116192412
H         1.64280828714180   -0.77200619519151    1.36159880357442
H         1.03369766880409   -0.12167285757817   -0.22915335242282
H         2.53952193417630    2.05194876499526   -0.87825309824401
H         4.17463117229331    1.58122835194563   -1.38536104209880
H         2.32502788332189    2.87107493003401    1.33642327319750
H         3.59452526503972    4.83805435773789    2.03669111878502
H         3.10844120895041    3.46183518926329    4.18189395780855
H         4.62399970277249    4.35021330596275    4.34747400228043
H         5.70255155842237    2.23634234404936    3.94280425674437
H         4.30087960555822    1.50430365209366    3.54160951069257
H         6.24707946940763    4.16461565847814    1.89875117736162
H         7.32954232144969    1.76977700422590    0.89742670612421
H         6.72924473118758    2.14698835122924   -0.75204113471790
H         6.29939639930647   -0.39405518901011    0.76157967573962
H         5.68603564493573   -0.01592338964589   -0.85211550631788
H         3.49344275716728   -0.99259216734073    2.37108883335896
H         5.29318994458364   -1.01144728084166    2.31756320734177
H         3.55027072208685   -2.73911381493890    0.77681086837817
H         5.04589190973017   -2.27287292044769    0.01148259580163
