36
 energy: -47.844190514967 gnorm: 0.139625921115 xtb: 6.4.1 (79825abcba525fcdf90b791dcacef51065a7a4e7)
C         1.78100294849728    0.01618019572125    0.49196708787731
C         3.14983800097937    0.16249022063901   -0.21218670943374
C         3.42592355317567    1.60166117606984   -0.60627729134935
C         4.07190255953884    1.90274192450233    0.81535958838781
N         3.23848097363536    2.56188351546835    1.81308370780261
C         4.02815446584809    3.69987620644443    2.36887640378415
C         4.17368966973011    3.53561796830260    3.91839640606615
N         4.79511137771570    2.23113147438898    4.19562507472950
C         5.37780615528020    3.58453334580379    1.69838292802580
C         5.34494294251164    2.58448406400266    0.82874345322946
C         6.41272194217455    1.77903484319521    0.23285545684895
C         5.79781602878419    0.35960287831885    0.16990711743658
C         4.37605181101162    0.41388777090235    0.91209413368866
C         4.23048724354429   -0.87269981981909    1.72564185260560
C         4.08406653272314   -1.78772439836311    0.49910893487717
O         3.54683899324519   -1.13636721994587   -0.67832639002313
H         1.69036760066907   -0.67458152426966    1.33725673381227
H         1.03360176361242   -0.40278718106693   -0.18340344462126
H         1.43090594545058    1.02731387657228    0.74672293989750
H         2.57951922922390    2.28108423659821   -0.75389366384090
H         4.17706886631189    1.61546598873452   -1.40897153000808
H         2.42876410398551    2.97281396577196    1.34113870915230
H         3.52609202047601    4.63087623759309    2.09308862730238
H         3.13577239294399    3.51294671158107    4.26961804144912
H         4.76452178956647    4.28038822149118    4.46934230080474
H         5.76530032303517    2.23777794689270    3.87709308472728
H         4.35245749780343    1.54110390956547    3.58454620361082
H         6.24323871411204    4.19405292747562    1.90101056390764
H         7.34266004402177    1.92842956180299    0.79430136598208
H         6.56828470719476    2.06119675913579   -0.81357852502285
H         6.35170139466116   -0.34491731873134    0.80741520322526
H         5.71566638758796   -0.17519242765545   -0.78162816152884
H         3.32985056784495   -0.86889767964334    2.34569946925601
H         5.05012825366235   -1.30083731625556    2.31902795081643
H         3.45215722891532   -2.66520252304354    0.68965202354240
H         5.04643205166099   -2.20085492362628    0.18990545081783
