36
 energy: -47.835494556504 gnorm: 0.134332840531 xtb: 6.4.1 (79825abcba525fcdf90b791dcacef51065a7a4e7)
C         1.95077497842085   -0.63135465098749    0.72246832413749
C         3.16600331049719   -0.11697073786044   -0.08349566830702
C         3.17561518001250    1.36493105208893   -0.41002043753130
C         4.01023035860238    1.65570661918344    0.91204507019053
N         3.25097543820462    2.05246684384809    2.09129320933443
C         3.74767020210914    3.39348888532419    2.51845995103635
C         3.93811691884589    3.14186000484415    4.05129606395352
N         4.53735293511895    4.29457990270301    4.74184566295460
C         5.04817196013362    3.53642342090870    1.76169697000292
C         5.12494604965346    2.57209516915693    0.85525977753648
C         6.25186958103361    2.08665422424267    0.05627689401917
C         5.79820840604425    0.66955843130850   -0.37137957872259
C         4.62392500005535    0.28645124083658    0.65306634476578
C         4.95505505422979   -1.06140324200195    1.29493707120452
C         4.53255446485598   -1.92723466583833    0.09705508146539
O         3.71185278607878   -1.20106944007938   -0.85076684010383
H         1.00140331717491   -0.12462670306919    0.51801451588136
H         2.15997637640137   -0.52539674167392    1.78796129113766
H         1.79914200842616   -1.69739821666342    0.49792801865016
H         2.22809503166463    1.91334926171963   -0.44537102547240
H         3.85708804027060    1.69171311194999   -1.20847906236057
H         2.23560088845308    2.02562405173991    1.96666825419412
H         3.10323794685300    4.26124741399925    2.35539883785972
H         4.67883703502195    2.33794993910003    4.13006935111022
H         2.91988400218381    2.86440504606245    4.35711823490904
H         3.85530995962588    4.80413544964730    5.30571082659841
H         4.84782154095183    4.95970254585678    4.03000368389583
H         5.74725058542669    4.29979727996077    2.06185550482290
H         7.19886868488229    2.06006267865026    0.60837365386161
H         6.52121200967897    2.59211420940276   -0.87689197688747
H         6.61683820011125   -0.05490264637852   -0.25073247481502
H         5.58150214704512    0.60284324300399   -1.44224909249304
H         4.43455097652245   -1.32547558352953    2.21958495457911
H         6.03364398706969   -1.14751676207168    1.48585752922226
H         3.80281840927132   -2.69814021319254    0.37772185851546
H         5.35381672844258   -2.33838879023635   -0.49363232828483
