36
 energy: -47.840909800641 gnorm: 0.140357256658 xtb: 6.4.1 (79825abcba525fcdf90b791dcacef51065a7a4e7)
C         1.66948420755334   -0.08012465799402    0.16597204190197
C         3.16296006830889    0.10759364997064   -0.18792110925274
C         3.50873633603920    1.55838633259296   -0.46789092018911
C         4.06380507024098    1.76322713070855    1.00822867855452
N         3.31517335903425    2.47926956455659    2.03358067557164
C         3.98612974963877    3.77677670262504    2.33986482824860
C         4.27512909817232    3.89103680362111    3.87368281125394
N         4.96053942486750    2.71520039671867    4.43254517684952
C         5.32551492780146    3.64828989635101    1.65141454383149
C         5.32468771698491    2.46598213184848    1.05174856946730
C         6.31358233037379    1.75085020136389    0.24263982684516
C         5.77876053536547    0.30174931970525    0.13808702462727
C         4.39313214831964    0.27784145344110    0.94720041457725
C         4.29610768834512   -1.10033088175548    1.60262711942405
C         3.98979898350902   -1.96685033967380    0.37038887829317
O         3.56918809395696   -1.14985880898563   -0.74980972049935
H         1.47965951277250   -1.06940500957455    0.59628831415177
H         1.10661992035617    0.00494036793863   -0.76473484024964
H         1.23488341441404    0.56510431273151    0.94357188613539
H         2.63828399064154    2.15159957429746   -0.76825304142941
H         4.29382046731402    1.74957279722468   -1.21342335201868
H         2.35886929674879    2.59788753646691    1.68912501086130
H         3.48554822341278    4.68811613906081    2.00257372191675
H         3.24918204693866    3.73267111204443    4.22510260151793
H         4.68774407390381    4.85778933736077    4.19375335267048
H         5.92804744549133    2.56758832277837    4.14114801638393
H         4.39198931399890    1.90665654844486    4.17080961297024
H         6.09985413664394    4.38186938555187    1.80570531244651
H         7.35620456304846    1.81868897430570    0.57529885371435
H         6.23707870463411    2.22534023354598   -0.74115164983354
H         6.51438966900903   -0.23659777851957    0.75338084842242
H         5.70173374755024   -0.13800086793988   -0.86134315435971
H         3.51977862975952   -1.14656350356012    2.37126756924535
H         5.25232725470507   -1.31477224852130    2.09949660812853
H         3.19828660480305   -2.69480741168420    0.59213326625215
H         4.81314159122441   -2.59195246493626    0.01855749185961
