36
 energy: -47.839602306066 gnorm: 0.129603087037 xtb: 6.4.1 (79825abcba525fcdf90b791dcacef51065a7a4e7)
C         1.83552420829384   -0.13000238395987    0.51200190765394
C         3.19391871106478    0.14379616355161   -0.17410841841212
C         3.33791003382289    1.62323017022217   -0.47953474610228
C         4.13244857187679    1.77538350644952    0.88960659882473
N         3.41870060453375    2.42897116391200    1.97951481102914
C         4.07189964400626    3.71338651051768    2.36826342525944
C         4.10736978721691    3.90016748718471    3.92165595672747
N         4.66451050252711    2.72501873122685    4.60964240167520
C         5.37499649443384    3.57319066417348    1.61546262105098
C         5.36157342453557    2.52822429894540    0.79979311609568
C         6.43987085604403    1.76000001836154    0.17442177901851
C         5.86958133889907    0.32116683610698    0.13716660785288
C         4.46695779306393    0.29014008779598    0.91619588474690
C         4.25400161461677   -1.11740599479327    1.47460484619290
C         3.97868794812310   -1.91631733205724    0.19045721661764
O         3.58627863510305   -1.03646415483998   -0.89171970742934
H         1.52500043790522   -1.15505693795428    0.28239513716487
H         1.06998527942850    0.50233258658546    0.05992868856461
H         1.79843761019153    0.09618703929895    1.58779125370947
H         2.46346682354071    2.27207141155621   -0.36053584776172
H         3.76976979916517    1.84792220090267   -1.46530277195582
H         2.40231032614095    2.30999610866411    1.97375792631021
H         3.58037435895797    4.61330138278952    1.98952493443675
H         3.05138797081529    4.02541526857287    4.18690737778735
H         4.68748514433393    4.79960889228238    4.17020789507389
H         5.63102199451476    2.58521213583998    4.31117456146394
H         4.05130855220824    1.90835993227437    4.55914819368139
H         6.20092378836927    4.23442948058339    1.82077470262389
H         7.29988448634772    1.84478198334691    0.84933941388658
H         6.87132870824433    1.91783727435862   -0.81944481558948
H         6.53397282555468   -0.48103323361500    0.49017272641103
H         5.53921758654776    0.06555874826289   -0.87461317066733
H         3.39670118101299   -1.17935150855467    2.15049768457604
H         5.13931665606095   -1.60068883309577    1.91035159874916
H         3.20461244940037   -2.67334598524472    0.37293641167655
H         4.92501651208801   -2.40141244460827   -0.05768793635100
