36
 energy: -47.838576600678 gnorm: 0.139595804841 xtb: 6.4.1 (79825abcba525fcdf90b791dcacef51065a7a4e7)
C         1.67425692582461   -0.07194093885407    0.33862275534119
C         3.13459578063097    0.09196372578978   -0.14251584741725
C         3.41192649612893    1.56302284913312   -0.39114501450920
C         4.14239482793943    1.74483106076109    1.00969471689716
N         3.39824254763074    2.44371573303040    2.05003625831080
C         4.01997226065869    3.77265363107387    2.32370298781018
C         4.06989938348294    4.05858418486875    3.86153412696482
N         4.84650239219606    2.90992692628010    4.35365198212704
C         5.37849927152915    3.54631356028485    1.70112780473250
C         5.42173956104878    2.41479860795858    1.01173979901677
C         6.46672966689085    1.65061331674344    0.32763474165550
C         5.80622465378012    0.25341320744955    0.23585240749109
C         4.38245641289838    0.24157049015401    0.97608604915021
C         4.24071555481658   -1.18316682558273    1.51310561475862
C         4.05444025693902   -1.93689659899545    0.18634828206692
O         3.52504984596499   -1.08799071258663   -0.86166802019803
H         1.28288685381353    0.83965949103797    0.80305277823749
H         1.47472605164530   -0.83413269718312    1.09328739631655
H         1.22602625504660   -0.42191787453446   -0.60290005306362
H         2.44274796109613    2.03238771308265   -0.59163499871935
H         4.12402371885491    1.80517031133984   -1.19302412807663
H         2.37623657751717    2.40461047360759    2.08484984375737
H         3.55502071110563    4.58581184193655    1.76024889999521
H         3.08255538534270    3.90881920649051    4.31304846793323
H         4.45525152248855    5.06948487475627    4.05360249171833
H         5.76731239516172    2.90045813968039    3.91229874630895
H         4.40350749710890    2.06813771927187    3.97862619352868
H         6.15451039339069    4.29263396573268    1.65256537051025
H         7.37478994059401    1.67316637689616    0.94183596535977
H         6.69639037119463    2.21283941203191   -0.58340699892153
H         6.52151842708218   -0.45825293919608    0.67339147186318
H         5.60283027944288   -0.05274408374113   -0.79520165211652
H         3.37068079186105   -1.27882783358122    2.16848405320626
H         5.11078190028316   -1.59816584513399    2.04034430125210
H         3.41927807275709   -2.83209537411982    0.21413446215666
H         5.04297530094951   -2.31948205462831   -0.07605955501327
