36
 energy: -47.845400010710 gnorm: 0.133573527334 xtb: 6.4.1 (79825abcba525fcdf90b791dcacef51065a7a4e7)
C         1.93654339224056    0.15731134121345    0.69386929053391
C         3.20873049545823    0.19198634249804   -0.18435975493040
C         3.55425172646767    1.58833857017104   -0.66763942951316
C         4.18518438253072    1.83498926762224    0.77113698465979
N         3.26131858094333    2.36190453738528    1.76780401068003
C         3.92441831474882    3.59815442169730    2.27721760799473
C         3.95259115761359    3.56732340794925    3.84164381594428
N         4.79451362651448    2.55355250141916    4.49596853226106
C         5.32053357674714    3.53886837909153    1.70122049277740
C         5.43613339251004    2.55491104270586    0.82035938199637
C         6.48080755405957    1.79165084091197    0.13474068988592
C         5.95290322327573    0.33639275149802    0.11474241440763
C         4.52633004612376    0.35308634821086    0.84946166724899
C         4.27466475136821   -0.93527434384120    1.63377547426374
C         3.83766153445289   -1.83358136629148    0.46537282766591
O         3.33164108975554   -1.14151318319693   -0.70262482320218
H         1.33749905929999   -0.72927647664599    0.45937185990562
H         1.22166079411061    0.94240306897179    0.44318740226422
H         2.20979447376961    0.26923656143143    1.75342881018148
H         2.66346914807842    2.17194301240030   -0.92399637566910
H         4.24855772494140    1.45742089780699   -1.50997410424061
H         2.31747826285343    2.51344147416843    1.40251042494340
H         3.47100132246591    4.50820447478370    1.87583417107312
H         2.95227177207026    3.29408563743364    4.19639044206453
H         4.18062518917749    4.56138998093297    4.25047002033520
H         5.73220262176750    2.47990812005301    4.09836413787197
H         4.33902345211660    1.67278658493797    4.24641294477678
H         6.06301753943496    4.24141184155806    2.04282843405744
H         7.45324063193001    1.92933941838247    0.62232762419070
H         6.56832345615165    2.14380729926303   -0.89829661596615
H         6.66355374201720   -0.27669639814797    0.68802406526197
H         5.93557957797962   -0.13269880761403   -0.87410895840032
H         3.48924011333175   -0.80224285523608    2.38280361790075
H         5.16975329082930   -1.29228884757184    2.16157979113445
H         3.08620440708984   -2.58323649470090    0.74628791620038
H         4.65492530074780   -2.41970804405482    0.03997126694207
