36
 energy: -47.838787412770 gnorm: 0.135740857813 xtb: 6.4.1 (79825abcba525fcdf90b791dcacef51065a7a4e7)
C         1.75755201795180   -0.05931296751763    0.33354393225592
C         3.21354838718300    0.13956753349929   -0.14756912910912
C         3.45723238858197    1.55938541536481   -0.62451673274814
C         4.06263080466286    1.92618471463663    0.79954125976352
N         3.26217942647534    2.63481538869651    1.79031522468309
C         4.08320526694968    3.69707556022099    2.44226395362875
C         4.21597612133156    3.48102414632554    3.98656551158324
N         4.72720857275953    2.13356099307999    4.28269074087497
C         5.36595158331577    3.60619116394674    1.64808057520356
C         5.29981937716324    2.66637068545357    0.71544151578252
C         6.24165367381082    1.83989181301664   -0.04209661430931
C         5.88364295588308    0.39891451963624    0.39639143202280
C         4.39928091318923    0.45527324832133    1.00359411415795
C         4.26855581803401   -0.91095726553665    1.67789523230196
C         3.96894018076521   -1.86918135615162    0.51379509085720
O         3.75616953593770   -1.07808429945881   -0.68124786976790
H         1.40683373570127   -1.09128356097316    0.44269751134987
H         1.06318495307010    0.60499950916065   -0.18299345969147
H         1.69690996958652    0.31992640660675    1.36425234294445
H         2.62894008975425    2.23223580863700   -0.87152046276230
H         4.17404131851337    1.65883795603216   -1.45217735595534
H         2.28231003249452    2.83427271165659    1.57280626130211
H         3.61943249729412    4.68592845337934    2.48666555306659
H         3.27478463738405    3.61460112782298    4.53196325920615
H         4.84374318810701    4.21372418884378    4.51227065010117
H         5.65445389766991    2.06546132460184    3.86037339435763
H         4.13032867135180    1.60282673830740    3.64429163210084
H         6.14403868191913    4.33544892227024    1.80399498848345
H         7.30307616121673    2.02429096996801    0.16212017252379
H         6.06928383933732    1.99013863219705   -1.11286914044483
H         6.63672801353774    0.10353968539319    1.14148935647924
H         5.98491349943284   -0.34398322379783   -0.40111797184891
H         3.43557544623291   -0.97020505002668    2.38377468895210
H         5.20169577762752   -1.20945372085805    2.17525821324451
H         3.07043692411315   -2.47316372666527    0.69677353543580
H         4.79061866007758   -2.54690059322862    0.27302102414810
