36
 energy: -47.837775492993 gnorm: 0.149372034738 xtb: 6.4.1 (79825abcba525fcdf90b791dcacef51065a7a4e7)
C         1.68467041848319   -0.02675207427521    0.37006841318059
C         3.06162654289199    0.25190050013473   -0.27591396544706
C         3.35286197837931    1.74042340462234   -0.32308618295324
C         4.16077563933479    1.65220882764861    1.04383878315731
N         3.62395701044463    2.00982856264964    2.35091443986780
C         4.13947270427053    3.39971942743954    2.52401610510411
C         4.07844716089429    3.99039409347496    3.97196394083831
N         4.78875514521017    3.30422726517618    5.06253414819704
C         5.50808084216341    3.34396333020904    1.88508861909467
C         5.40919716729719    2.37578078030991    0.98492407274598
C         6.32689207088534    1.69954963891958    0.06594054204380
C         5.79844473133845    0.24968907786677   -0.05858569020484
C         4.40506734344144    0.18142516193945    0.73453572855633
C         4.27972476106614   -1.27135468687068    1.19505370642698
C         3.95079084522687   -1.88007131551089   -0.17766571739951
O         3.35943978519256   -0.90549536669351   -1.07194711779578
H         1.60430268918098   -0.88523004571558    1.04567016263025
H         1.13236424094663   -0.14332919933043   -0.56354565148187
H         1.32613459871054    0.92477551062837    0.78948122929885
H         2.46132078784278    2.37644246323138   -0.30209338936762
H         3.98988675901838    2.13842585075868   -1.12590711136439
H         2.61081729632926    1.95871479491682    2.48572058657295
H         3.59510889440324    4.14057285630075    1.93266937285505
H         3.01592694061186    4.14360253562392    4.19269199844836
H         4.54199861586491    4.98642910159143    3.99043130472185
H         5.76804256901571    3.42981029199384    4.80176903548702
H         4.64008408066437    2.29933798691545    5.17912036061860
H         6.10522825816526    4.22585642161676    2.05008943212957
H         7.35207628664070    1.62663222373565    0.44804736474965
H         6.50225455095192    2.15593808420000   -0.91375169299405
H         6.51589618839627   -0.38772026733950    0.47856144946127
H         5.75989935806640   -0.11350163493707   -1.09046785389298
H         3.51442158819820   -1.40421715235400    1.96465816688563
H         5.19282259632582   -1.71082068306880    1.61972091220376
H         3.25506892631718   -2.72684424163927   -0.11035643665088
H         4.81816888268462   -2.31081778861908   -0.68218910993717
