36
 energy: -47.843113143799 gnorm: 0.140792751064 xtb: 6.4.1 (79825abcba525fcdf90b791dcacef51065a7a4e7)
C         1.90630584315316    0.11167855029020    0.49161045764229
C         3.28649757144189    0.14914128694837   -0.20453314360167
C         3.43375161654477    1.59642545348675   -0.63630673931377
C         4.06771525648541    1.94234260657029    0.78052830705839
N         3.20103443407015    2.66181070428207    1.70559199198426
C         4.07172119178321    3.66355957383649    2.38817606229780
C         4.11838966079154    3.29827025946229    3.90921498135853
N         4.50202445328575    1.88800998789926    4.07861402827880
C         5.40783774212828    3.57502198736499    1.68719175566268
C         5.34572693629115    2.61483194904058    0.77525481880674
C         6.33301801344876    1.90981599944919   -0.04461837167811
C         5.86158911647234    0.45809882459915    0.21447818006643
C         4.44565290350735    0.47945128206483    0.96937601554234
C         4.34123312359908   -0.79861729594332    1.80243900779437
C         4.00646509576036   -1.80684618493404    0.69135984440356
O         3.70466485120954   -1.17331906655040   -0.57623376272183
H         1.60066822682326   -0.89103420311464    0.80946873003651
H         1.11044552086763    0.57882503646063   -0.09032428929103
H         1.84545366393056    0.69612152348573    1.42144011514557
H         2.43525818683030    2.04017802265566   -0.71312550846717
H         4.02925738498618    1.82997292909875   -1.53048590218636
H         2.41955514254731    3.11754563259937    1.22722688149764
H         3.65111336131028    4.65633155854147    2.20823282509714
H         3.12009847649052    3.41632621597647    4.34581597649480
H         4.87671441773494    3.84457040950756    4.48697483514326
H         5.51822745707678    1.89617625363752    3.97842337542195
H         3.92688967798887    1.22805702767566    3.55023918780807
H         6.16881918106531    4.29883468945636    1.92915901992718
H         7.36273327162463    2.14154325843583    0.25255869808761
H         6.16607258303152    2.01913907964353   -1.12119487256654
H         6.58873770539384   -0.09067068539991    0.83064476091963
H         5.66210051338114   -0.02119462315315   -0.74918986535442
H         3.62956989134976   -0.77151292311951    2.63215774329510
H         5.29934943595174   -1.10450499879106    2.24478058770703
H         3.13298775728532   -2.39376059324044    1.00465318269766
H         4.85108235763382   -2.48241143064087    0.54081317469447
