36
 energy: -47.839323951340 gnorm: 0.139058310312 xtb: 6.4.1 (79825abcba525fcdf90b791dcacef51065a7a4e7)
C         1.70886406249593    0.23097428380804    0.41974314861561
C         3.14075498317077    0.12921389596582   -0.15495841283369
C         3.49471950699768    1.53578112368801   -0.60107665430488
C         4.10732361953862    1.88202057500682    0.82504556854347
N         3.11664778135798    2.48415613384789    1.70850867673676
C         3.86209615465350    3.58782392189136    2.38211195292962
C         4.18617621052913    3.22958153916216    3.87067102441194
N         5.15211594553212    2.15752798819013    4.15766811533099
C         5.23552404344153    3.70133385170144    1.76143760620983
C         5.30834474708141    2.67813339825437    0.92167000548572
C         6.41312272949869    1.95067122869972    0.29377859565127
C         5.82545084036567    0.53359950257459    0.08543154121715
C         4.43879543273340    0.39693074578451    0.88149092719633
C         4.34923722693033   -0.90693545453853    1.67538585926474
C         3.91069925236827   -1.90636858311455    0.59283795728283
O         3.47085547051709   -1.19812753019939   -0.59213699846701
H         1.10959940375892    0.94740103649778   -0.15252925277893
H         1.65336482533197    0.43316576595590    1.49039995972652
H         1.25230605419905   -0.76515234690209    0.32410679898069
H         2.58549902372151    2.08765066619266   -0.86292537962130
H         4.23036487779652    1.62851242143404   -1.41283693841289
H         2.31257165567235    2.87364767282543    1.20951436769563
H         3.28654693958054    4.51653576834532    2.41564000205823
H         3.24901128923811    3.01387122550320    4.39634572218763
H         4.69776522675386    4.14823520366837    4.18951087373851
H         6.00622588860925    2.39024067592463    3.64863529858872
H         4.84298183961185    1.28265244455701    3.72810231467924
H         5.96448789694642    4.38914557321872    2.15776129505143
H         7.31843474510299    1.95584489011935    0.91241309224811
H         6.54176196715610    2.43295188188806   -0.68074518170231
H         6.54606114506868   -0.22311934560255    0.42843547425071
H         5.81441775146290    0.32749417218146   -0.98954422884421
H         3.66704031179869   -0.82061173791200    2.52555525544770
H         5.28088522388988   -1.18185663564286    2.18887453385695
H         3.17892857850560   -2.67590725162276    0.87195414017593
H         4.74728375926036   -2.52296918835891    0.25763488596065
