36
 energy: -47.847515933162 gnorm: 0.138059813099 xtb: 6.4.1 (79825abcba525fcdf90b791dcacef51065a7a4e7)
C         1.79744288837911   -0.11106668180207    0.55048660096702
C         3.15785643455992    0.16248836518497   -0.13170931270900
C         3.39115484095921    1.59859397254130   -0.56288938106578
C         4.11203332544655    1.84080929230158    0.83376952721883
N         3.31205704370263    2.52243040882177    1.84369204813025
C         4.08514393942793    3.73078041976859    2.25569222244306
C         4.19377531476566    3.82269738960084    3.81419281668220
N         4.48134304281021    2.55608830381514    4.50535990710646
C         5.46657887932201    3.49532069249661    1.68945769363962
C         5.40682670218481    2.48039473229471    0.83868945098743
C         6.43596162746573    1.72015399504663    0.12672137795543
C         5.84224698176339    0.29036161838333    0.13418378259692
C         4.44950902784118    0.35901719979733    0.92839375428524
C         4.33098942573762   -0.99458004053537    1.62988108812628
C         4.01005500514607   -1.87940216851727    0.41448692543809
O         3.60253370620945   -1.07113595010608   -0.71682456460642
H         1.66623895717324    0.57774393453492    1.39203670715113
H         1.65838013263435   -1.13965220766147    0.88655344978716
H         0.97294805084220    0.09422450804521   -0.14802866445369
H         2.48527566925115    2.20125192886744   -0.68935259960101
H         3.97718426446083    1.67564831963691   -1.48990615963432
H         2.35486600191595    2.62816243580641    1.49750793536979
H         3.73428221759427    4.71386818437094    1.93115990537480
H         3.17418464975932    4.00899551904643    4.17038209098319
H         4.74627567682026    4.72568963633787    4.10856517702368
H         5.41938628990686    2.24275288738580    4.25105854498724
H         3.79289220194781    1.87799239759910    4.17111557850434
H         6.29083342908021    4.14975518268787    1.92154745512795
H         7.45620994357830    1.81153543387384    0.51796051053222
H         6.50915001992813    2.12864364547926   -0.88650067896300
H         6.44945319680427   -0.43205526183251    0.69895699019521
H         5.56983467224272   -0.22075497042224   -0.79464633933764
H         3.55366629370138   -1.08738855382806    2.39328644223167
H         5.32037994145724   -1.16587015879329    2.07595994492277
H         3.28487773131828   -2.64602245553278    0.71779398508264
H         4.90982365320288   -2.36139936168002    0.02650996534858
