36
 energy: -47.841735840896 gnorm: 0.134516334558 xtb: 6.4.1 (79825abcba525fcdf90b791dcacef51065a7a4e7)
C         1.89179546808368   -0.07160746260376    0.61990914026209
C         3.26984870473720    0.08680686687235   -0.06333520377820
C         3.36489565206803    1.53063168598181   -0.52058753913891
C         4.10947735425323    1.86023751537173    0.84540963191440
N         3.33682552665913    2.42989506246444    1.94222882950679
C         4.02879099424852    3.69200386966256    2.33692162667112
C         4.31125615704208    3.54232467129737    3.86890830603546
N         4.29670984799631    2.17691474334909    4.41676764694807
C         5.30140717823030    3.74530510502932    1.52326791397820
C         5.31688450007824    2.64960205551714    0.77718016207902
C         6.28417447453353    2.03570294006121   -0.13466478728175
C         5.90790257787026    0.53865963053851   -0.01575384003538
C         4.60171676948796    0.42072094638912    0.90900083889850
C         4.51047808131692   -0.91104823645325    1.65493866399171
C         4.05457076199240   -1.90163718171137    0.57143779035839
O         3.65466969953598   -1.17988090335472   -0.61952005774696
H         1.47046660034514   -1.02841458220738    0.29297911388440
H         1.30040277671222    0.74722030577008    0.20754603208247
H         1.72265932205050    0.01772821965253    1.70308589927212
H         2.38886928618203    1.95933824787583   -0.77236097939250
H         3.96108936671472    1.65285498812500   -1.43619798527732
H         2.33440141897103    2.53916394395823    1.76774781903049
H         3.40212021293081    4.57894492163531    2.21239838902325
H         3.53600378549691    3.95632329644380    4.52368446756695
H         5.28638263440989    3.95897053006483    4.15672998039529
H         4.95405313140769    1.55984367933673    3.93729240244216
H         3.37095597317392    1.74278646062123    4.41356012683749
H         6.01988237011819    4.54308524510915    1.42900243600737
H         7.33357994204019    2.19909559833909    0.13805532716583
H         6.21430921049294    2.42508764564878   -1.15561419015210
H         6.75518015739498    0.05598304908182    0.49287013099609
H         5.77751765681057    0.00019488516107   -0.95980337903114
H         3.66848152125482   -0.78818282219703    2.34165424405877
H         5.38081866569841   -1.26705758694274    2.22325625053672
H         3.16411769875681   -2.44103955658692    0.92032507592992
H         4.81450219524816   -2.65035549236827    0.33829373740126
