36
 energy: -47.844674982809 gnorm: 0.128230960760 xtb: 6.4.1 (79825abcba525fcdf90b791dcacef51065a7a4e7)
C         1.81937447397869    0.09754278678522    0.81383646035735
C         3.09025348259585    0.09821945885509   -0.06696700742985
C         3.37610829426421    1.51153759123499   -0.53979109088002
C         4.09244507333175    1.85732158246144    0.83726562600913
N         3.32418328272093    2.51979127194693    1.88388907438578
C         4.13476553241384    3.65529314788328    2.41408635587667
C         4.34756590501866    3.57863030278223    3.96263807667031
N         4.15604484130534    2.21530098379861    4.48163573870689
C         5.40425839870383    3.61646520719351    1.59475395626232
C         5.31325659944884    2.62053407411786    0.72452899292228
C         6.33509145498510    1.92380862132349   -0.05931434818686
C         5.80406905247386    0.46964499282005   -0.04251066362960
C         4.47256555611314    0.38289885900976    0.84899124307790
C         4.48575759002051   -0.97036773026490    1.56092691608575
C         4.20118161405315   -1.84567804422273    0.32969158410155
O         3.39884029964683   -1.16848927415895   -0.66875589384370
H         1.81206798877951    0.90690659822188    1.55191366409172
H         1.83979304079512   -0.87802528518592    1.30180939265477
H         0.95299155674137    0.17370783830409    0.14045743247849
H         2.43224485098881    1.97428451465726   -0.84767698421918
H         4.13059221445198    1.64164725622583   -1.32881165211209
H         2.46188055280236    2.81440264359468    1.41819010414799
H         3.59885735159173    4.59626909241410    2.26491055798325
H         3.61526330062628    4.16695461595803    4.52721785098477
H         5.31633914689318    3.94271679307107    4.33172637397600
H         4.89196288242786    1.63020146513233    4.08306756503624
H         3.32741818719803    1.80816872863127    4.04218257323032
H         6.15582028418205    4.38293599015432    1.69079039669958
H         7.26771287884450    1.99109445078917    0.51341171072763
H         6.53724114281803    2.25649238152482   -1.08268930618645
H         6.58101282629191   -0.17277457220731    0.39704569751916
H         5.67352150695636    0.06761261062410   -1.05221425311778
H         3.69060291306605   -1.16609608822552    2.28553154369816
H         5.38244031443488   -1.27616344114486    2.11740633436478
H         3.80970568557199   -2.81089186124175    0.67710028008176
H         5.16815940930567   -2.11649101568899   -0.09931344495263
