36
 energy: -47.829586208338 gnorm: 0.151548587619 xtb: 6.4.1 (79825abcba525fcdf90b791dcacef51065a7a4e7)
C         1.91188930709980   -0.50214200620604    0.84157391312352
C         3.14749571168699   -0.05845921823093    0.02464610094705
C         3.08573430557467    1.44345456229364   -0.18316209362243
C         4.11236239012121    1.70422269033808    1.00301870148279
N         3.38465423945971    2.27078772308806    2.13171608963757
C         4.01275982814340    3.60648677159963    2.35286908983087
C         4.54215321418728    3.71211996260007    3.82179994893150
N         3.48032798174723    3.49190183905876    4.81615243662665
C         5.12869394166576    3.68179086033058    1.33628379723832
C         5.26886565250707    2.51951443916088    0.71425725522663
C         6.26612869605763    1.88828849068188   -0.15234727839116
C         5.76001531954683    0.43326321894594   -0.30600179915808
C         4.60420663958216    0.27806126216884    0.79636870094092
C         4.91279270290823   -1.15206716771377    1.24118796186880
C         4.46015869867696   -1.90737438424349   -0.01886185360309
O         3.51534994287515   -1.15822082624306   -0.82219176035884
H         2.14968263360418   -1.55166414768722    1.04611908614894
H         1.01526224743344   -0.38787086426085    0.23061598904602
H         1.86845334518023   -0.01962128723356    1.82906915958978
H         2.07477010743962    1.80252018249159    0.03781277828209
H         3.40529205589485    1.70517816797800   -1.20203968864320
H         3.42349908633865    1.71494819416424    2.99006967925371
H         3.24905444513438    4.38835213895481    2.33477616083390
H         4.98593063535417    4.69352060257146    4.02442596281335
H         5.33897630765573    2.98477377410521    4.02999987581740
H         2.82585663019497    4.24369464720432    4.59423303385667
H         3.62486670386729    3.62604172127726    5.81945345821217
H         5.84063295906085    4.48827472862117    1.27092085687204
H         7.26000053404719    1.96739022547836    0.30403734164452
H         6.53901018012206    2.40841886663349   -1.07638156703336
H         6.54984554681425   -0.27450679672642   -0.01482465654630
H         5.36842567042487    0.17520778557632   -1.29506143710505
H         4.41325254128313   -1.40921284809593    2.17925412703986
H         5.97367097068938   -1.27810215301749    1.49784480057303
H         4.03082270924720   -2.89169875470399    0.20996134877307
H         5.38609970692902   -2.04238239561125   -0.58174471967139
