36
 energy: -47.836114881333 gnorm: 0.154776997612 xtb: 6.4.1 (79825abcba525fcdf90b791dcacef51065a7a4e7)
C         1.85837564919633   -0.12745520435500    0.54235352567524
C         3.20179598587935    0.09056565740260   -0.19156565100905
C         3.32681083957770    1.58939882139451   -0.39309520608395
C         4.14402158787025    1.71703347035544    0.96516329695854
N         3.54755349118192    2.33518670724167    2.14271385042351
C         4.10311313427459    3.71624547829743    2.25017269091897
C         4.09094606439096    4.10872591876839    3.76509337796824
N         4.44285847830018    3.03433518454823    4.70666011952820
C         5.39899097054506    3.55370098791005    1.48944589665647
C         5.38602004084034    2.43133308858977    0.78405685402835
C         6.38150227436480    1.65569495550948    0.04150460856846
C         5.93356929337775    0.19281233622878    0.27854786095920
C         4.46113101085810    0.22856525711390    0.91561091339704
C         4.32471154046116   -1.18929569437625    1.47186350158792
C         3.89617571754073   -1.93570017065883    0.19815651300737
O         3.52881695824910   -1.09905936076600   -0.92626034931230
H         1.94632531721142    0.17465531764355    1.59157953077959
H         1.50156234692649   -1.15754032804551    0.49903529386446
H         1.13004431616790    0.56677560966542    0.09801487750276
H         2.30024716774557    1.96751882321142   -0.33833273421200
H         3.87528375684505    1.79667047755011   -1.32311880220148
H         2.52777286644396    2.39296240317106    2.20553779835414
H         3.60260230326167    4.56317600332861    1.77363903681659
H         3.16521856513879    4.60779204132412    4.07348359762535
H         4.85067681680449    4.88972163664458    3.90708494519344
H         5.44187863669921    2.89459154011745    4.54790295927767
H         3.85812987793823    2.21989952745854    4.50594909675681
H         6.11146060300473    4.36087804618501    1.53841478334126
H         7.40986125306489    1.72516380899705    0.41563980242155
H         6.43090590488246    1.92475212272042   -1.01868726368408
H         6.61457816413299   -0.22397100160697    1.03490285986881
H         5.99137829260561   -0.34315664924508   -0.67411650913749
H         3.53986978389698   -1.25548136426924    2.23033254324117
H         5.24664085826455   -1.52999450931970    1.96297541334412
H         3.15492181574326   -2.74568907344351    0.20483130401977
H         4.74946222480031   -2.49978214415251   -0.18413225635843
