36
 energy: -47.813807481423 gnorm: 0.163467839417 xtb: 6.4.1 (79825abcba525fcdf90b791dcacef51065a7a4e7)
C         2.12214873487674   -0.53859030648442    0.91339797293623
C         3.16136971832902   -0.00504446461645   -0.09966529310325
C         3.13549811926056    1.50786358070584   -0.21448500110587
C         4.20834079842325    1.62213042732463    0.95382214850299
N         3.44415554514903    2.05707655528715    2.11630025441470
C         3.87196464282995    3.46720388782364    2.35302242984302
C         4.38136279855487    3.91790747119289    3.76247384558542
N         3.46243750601322    3.67146393593248    4.88476951552771
C         5.04970417460040    3.62471397489984    1.41892108376901
C         5.32918067810308    2.51109064723882    0.75620899087747
C         6.42255859456251    1.87734540482002    0.01669927764660
C         5.72935420796566    0.57400054346273   -0.44979695416374
C         4.64485861868967    0.19135432062877    0.66942290306175
C         4.88962743467002   -1.19635480430421    1.26331526945002
C         4.32987585098917   -1.93433237909477    0.03646594661037
O         3.50281219822954   -1.16638694587231   -0.87208183496495
H         1.49615945691901   -1.28470284123891    0.41206513044136
H         1.45735335910333    0.20214410730477    1.36019455623541
H         2.69985160695077   -0.90833050247668    1.77328828967466
H         2.14379138629685    1.89029780245567    0.05021934230244
H         3.51962592857078    2.03318030027686   -1.10060918379958
H         3.73073239434842    1.39872441236523    2.84546655498590
H         3.10202277527366    4.09440495958045    1.89619095838267
H         4.70210871145175    4.95686178063693    3.62521899094984
H         5.25086800784750    3.26596484558099    3.92445597862249
H         2.58153734438326    4.18797059629983    4.88779717476829
H         4.03346588676492    3.92514043373363    5.69413513560455
H         5.59450410985619    4.54614759955412    1.54421549433267
H         7.24638387651097    1.66115319499636    0.70727729014307
H         6.71398683519203    2.42006824139396   -0.88848617035043
H         6.34409549038376   -0.33770407752148   -0.42877065008917
H         5.26257938629730    0.62305545627644   -1.43867958198572
H         4.39223333520849   -1.60072675065772    2.14915653529512
H         5.95877028678616   -1.28073944554825    1.50213102987290
H         3.69130398620237   -2.71594709547504    0.46877174837540
H         5.11854045251203   -2.49777065090144   -0.46650172170624
