36
 energy: -47.837322344152 gnorm: 0.120536312631 xtb: 6.4.1 (79825abcba525fcdf90b791dcacef51065a7a4e7)
C         1.68175237479817   -0.11250861261233    0.12966064420196
C         3.18180273477504    0.08629656350738   -0.18857523663744
C         3.37639917480429    1.57453580779001   -0.41222653146834
C         4.06997652296189    1.73195193995555    1.01015202591746
N         3.40676063408128    2.43553993570607    2.10084973778566
C         4.03128225882389    3.77431955780788    2.31335643980494
C         4.18251137609491    3.95595702447791    3.86038946602794
N         4.89310428111986    2.92772442795387    4.63659895421153
C         5.32912329313196    3.59078390386354    1.56079506864976
C         5.31648326389292    2.45037426097704    0.88495657262786
C         6.30786940745744    1.69085160405831    0.12058622775218
C         5.84314305046045    0.22448498147431    0.29567861625912
C         4.38857866458594    0.24343544155044    0.97323703843883
C         4.16468352729326   -1.12881586318121    1.60975426324869
C         4.02812973222512   -1.93736326605169    0.30948651218516
O         3.70128916447031   -1.09316413423986   -0.82176794426108
H         1.43813920372158    0.42919092774083    1.05003847534000
H         1.43395144613802   -1.17426362289890    0.16888515020157
H         0.96751633149393    0.13920348087382   -0.66806592969315
H         2.42855958799029    2.05285999302932   -0.68169401367357
H         4.09295703092009    1.79281013901092   -1.21698059970192
H         2.40236893896993    2.59909491754985    1.99275495224190
H         3.57850021414412    4.64159454024543    1.82580208934207
H         3.15307364868100    3.98302628874673    4.23544697723213
H         4.80650244371048    4.81021539070511    4.15734825397688
H         5.85704720476567    2.87901752695481    4.30310970927191
H         4.62372247267694    1.95121437350429    4.49746073086916
H         6.11680671516822    4.30175554113014    1.37206282446284
H         7.32400647641340    1.82719092381461    0.50943360776746
H         6.38700348626468    2.11726443949225   -0.88477398597928
H         6.53208944825314   -0.31031198294271    0.96567815569770
H         5.83588118533766   -0.30729417049265   -0.66105135119906
H         3.23448607551990   -1.06237634958284    2.18067535239982
H         4.92321813673630   -1.58708375851231    2.25924332457513
H         3.32948445983489   -2.76971954362960    0.46652703325662
H         5.02795044579402   -2.32445271147026    0.10223947187102
