36
 energy: -47.843951991054 gnorm: 0.129517623354 xtb: 6.4.1 (79825abcba525fcdf90b791dcacef51065a7a4e7)
C         1.71962602213638    0.11736077983406    0.36904755873523
C         3.17957030945211    0.10943291445239   -0.14031329525440
C         3.53668878808507    1.52665205145121   -0.54860245057774
C         4.05215075389257    1.81127913362309    0.92865058653117
N         3.29182027645251    2.47808450513949    1.97830817292389
C         3.93968165351983    3.78401423281013    2.29821506712335
C         4.26299940974202    3.63268430151363    3.82194026485341
N         4.88094800920133    2.35664628966825    4.21509702608073
C         5.20824356051748    3.71712264750893    1.47925138380762
C         5.29148061592347    2.54923805769653    0.85750481599373
C         6.35105818276761    1.79404735524197    0.18596510899680
C         5.90326437410498    0.31576897156267    0.29100196417420
C         4.44025521184585    0.33904579663012    0.94998943185506
C         4.19052788688079   -0.96876624201703    1.70206708072001
C         4.02567358142289   -1.92045341909581    0.50615460698267
O         3.56496707176883   -1.17693120829366   -0.64890288545709
H         1.43483401644236    1.10161189050066    0.75637737364776
H         1.51040815030499   -0.62520751912474    1.14046687890997
H         1.14718920745993   -0.12190358649929   -0.53920815590464
H         2.70886863137007    2.12470312396146   -0.94465211248354
H         4.31921603722740    1.58016307798394   -1.31900210666008
H         2.30002857742413    2.64388027819562    1.78831242910813
H         3.36236756437144    4.65275569211448    1.97128473236401
H         3.37222886017965    3.80987964587028    4.43535085801599
H         4.89946542936125    4.49190120072236    4.07485142412933
H         5.71846438210109    2.02412501179704    3.73471246675998
H         4.10190947418800    1.74952983121755    3.95050969692970
H         6.03653869263308    4.38797138882078    1.63873446468615
H         7.25419093804357    2.00460180617016    0.77106620086520
H         6.53792778379301    2.21816212707689   -0.80602566106810
H         6.52766864459236   -0.35112505247454    0.90331396823800
H         5.92267447638817   -0.08568132400120   -0.72715074747797
H         3.29918780559824   -0.96733171942091    2.33542575659740
H         5.05950416869775   -1.31837585039958    2.27641331358780
H         3.39942205633160   -2.75975807215921    0.83624647521683
H         4.97249901883186   -2.37630608301265    0.20925230586815
