36
 energy: -47.842898203934 gnorm: 0.136995559252 xtb: 6.4.1 (79825abcba525fcdf90b791dcacef51065a7a4e7)
C         1.93166505754237    0.05153679399304    0.52699319823052
C         3.29209921497191    0.13783241434998   -0.20288389845058
C         3.49597132992925    1.60954821773405   -0.51148140524451
C         4.13213456530168    1.80279878269586    0.93314327386160
N         3.30592999777288    2.38819278360024    1.98157661446047
C         3.93144980968365    3.72499017131339    2.20342075993527
C         4.20894712068589    3.76509489265231    3.74308317964027
N         4.54632951445855    2.41910074046038    4.23214202206590
C         5.28804418364966    3.68294195909253    1.53835774509523
C         5.38056520225584    2.52772762300454    0.89464114135366
C         6.39257307985562    1.78530755033221    0.14056194921328
C         5.94938594206780    0.31221244152673    0.31501779492975
C         4.48437846049353    0.32187855431266    0.96989301140825
C         4.27948052513005   -1.02194176638060    1.67026458631679
C         3.85519068007971   -1.89836116023051    0.48074402731220
O         3.66927518722033   -1.13956720002795   -0.73946116034593
H         2.01815139311540    0.00037830748492    1.61776541694554
H         1.46207412163860   -0.86400750598350    0.16432180155644
H         1.28272028862186    0.83432647732716    0.10750448875166
H         2.60374943391399    2.18771275126903   -0.77505762124626
H         4.22839797247954    1.82163196795107   -1.30350387408828
H         2.31027937268951    2.44145951798316    1.75118605903019
H         3.29417009759342    4.55214266181275    1.88003248187780
H         3.37700368075337    4.13013371392378    4.35607556705870
H         4.99421330091657    4.50508964694782    3.95061991864865
H         5.13808773241446    1.92890136563369    3.55960936228741
H         3.69034322737513    1.85993234253976    4.22136872956489
H         6.05360846940390    4.43951676238494    1.48311750639425
H         7.38150187525757    1.86150633680863    0.60804323277147
H         6.38813187584311    2.27933093893509   -0.83655644903472
H         6.69632943410877   -0.12604553560923    0.99292606700918
H         5.85548678245956   -0.22808882255715   -0.63231080015930
H         3.57989100675955   -1.00187979433209    2.51038621044061
H         5.18163743861382   -1.41804636961621    2.15650960428033
H         2.91900856726392   -2.38879473218566    0.77843826153207
H         4.57151680118137   -2.66738216190876    0.18424006269953
