36
 energy: -47.843148790739 gnorm: 0.141191186301 xtb: 6.4.1 (79825abcba525fcdf90b791dcacef51065a7a4e7)
C         1.86700191599464    0.05336439053132    0.74214620946369
C         3.16754784990288    0.13302847221695   -0.09042964592733
C         3.52128836241359    1.52414538345697   -0.58277617466418
C         4.15401788206303    1.75161406431266    0.85836972720576
N         3.31738159945061    2.44745208102586    1.82809241873943
C         3.99546402483479    3.70677620999070    2.25450092505633
C         4.02658102484436    3.84419754573262    3.81312876158617
N         4.54115599391987    2.65733668799250    4.51404218852304
C         5.33338285341410    3.59414219311356    1.56044608467208
C         5.40137305471108    2.47931141477514    0.84631631790789
C         6.44626722938133    1.74038191683342    0.13486526798028
C         5.89806006657035    0.29275225865104    0.16125270085503
C         4.49324647644984    0.26926563954560    0.93659085480846
C         4.29005561212652   -1.08716293025347    1.61273573320691
C         4.03027663147701   -1.90925892553687    0.34003579698179
O         3.46496862882200   -1.11631919221351   -0.73276754890096
H         1.97405275437216    0.49493065478523    1.73886104931547
H         1.54075355628167   -0.98727853328894    0.77201047751187
H         1.14335662281534    0.70179840009590    0.22665555848437
H         2.68998696938001    2.17557412747055   -0.87326751536873
H         4.27679618896305    1.58220567077440   -1.37937198526393
H         2.38582585315530    2.58633008701130    1.42789973257853
H         3.50374464518297    4.60217615724593    1.86545373704832
H         3.02211526461334    4.06868242617876    4.18968951153784
H         4.57642713488150    4.75722183806315    4.08026661476444
H         5.55515472785205    2.53666153989949    4.50986157476454
H         4.03943579814939    1.96043031713283    3.95897800852023
H         6.07946884729200    4.31232213825098    1.85897412255430
H         7.43273682948516    1.66358161574090    0.60741653588214
H         6.59197004153989    2.04749859086863   -0.90594659063082
H         6.48159462526937   -0.57973693713223    0.48958842331170
H         5.63218908451203    0.01309329165211   -0.86308977699912
H         3.40834748931499   -1.24124405166190    2.24081392124779
H         5.13953880607519   -1.36988183721824    2.24965690716313
H         3.34924213623325   -2.76586643296762    0.42947578491195
H         4.99073690633828   -2.31727737478770    0.01837131158340
