36
 energy: -47.851407767618 gnorm: 0.144129708665 xtb: 6.4.1 (79825abcba525fcdf90b791dcacef51065a7a4e7)
C         1.82750568830322    0.00595688401958    0.46299393555994
C         3.23648675430480    0.12378139373577   -0.16297602391376
C         3.39631576369395    1.57312966479668   -0.58319977870668
C         4.12371276936764    1.86847473542811    0.79978794075640
N         3.32751909874137    2.58060591683555    1.79148229812667
C         4.09136228400479    3.73307472952539    2.35351117994533
C         4.07294507202763    3.66039168775757    3.91669753991718
N         4.60647901334644    2.39880893259392    4.45377873253950
C         5.43245613666688    3.54457884172485    1.68242109411677
C         5.41175223538693    2.52026489353058    0.84111026403828
C         6.39215199814210    1.74760635973465    0.07573564946987
C         5.76573104384705    0.33348067850605    0.00714739148557
C         4.46883711684498    0.39309062651666    0.95039437357960
C         4.29201047141361   -0.91633231019615    1.72013507926306
C         4.13677943057818   -1.88086475902549    0.53325996215966
O         3.57204594286118   -1.19789382345185   -0.61297751984049
H         1.61268761466420   -1.03926161581321    0.71048656705926
H         1.06494923463244    0.34151792082451   -0.24140226548745
H         1.67460389196837    0.65593298056464    1.33707167956265
H         2.40865441959718    2.03939342723759   -0.66644521221372
H         3.90664764319967    1.95687632812098   -1.47820136235609
H         2.41159278330424    2.92345683860495    1.49020232396776
H         3.67509340735553    4.69281615537806    2.03648855849619
H         3.04206418516375    3.71960172088530    4.28401442003938
H         4.62081325921944    4.55647153795227    4.23947932803462
H         5.50779520814555    2.15455223628138    4.04057033078651
H         3.95718391242698    1.64728696912063    4.21061520784050
H         6.22949273468927    4.24636102710294    1.86621485673468
H         7.36815753150767    1.68808726872397    0.57191698813473
H         6.59004318522264    2.00270580740781   -0.97049693970674
H         6.49586125373879   -0.40508966656951    0.36905627046589
H         5.43331272496941    0.05778164425403   -0.99866677136333
H         3.35916859654049   -0.92533062547285    2.29053622405181
H         5.18018677995831   -1.18334003154661    2.30926152546978
H         3.45862736861938   -2.68266966328750    0.85388839229958
H         5.05349257700732   -2.38369371170030    0.21825029976721
