36
 energy: -47.843977130726 gnorm: 0.133102933826 xtb: 6.4.1 (79825abcba525fcdf90b791dcacef51065a7a4e7)
C         1.72081882223237   -0.09358952599807    0.33820269980428
C         3.13574383771593    0.13278642507676   -0.24290813090366
C         3.39752851188298    1.60629315982156   -0.49388707182638
C         4.09840030904084    1.75870355937381    0.92545782780599
N         3.37919551336309    2.38269142023594    2.02904131998730
C         3.98718272075779    3.72024771161491    2.29136167300863
C         4.22781472047385    3.95239015990443    3.82021082619116
N         4.90725948606576    2.87967104118746    4.56340274367481
C         5.27660659157917    3.61253387077641    1.51020283728766
C         5.35826201235414    2.46138026009016    0.85780005959865
C         6.48794812970407    1.62950351051371    0.43854648558245
C         5.78369327486931    0.29687601909254    0.08500995723604
C         4.38685678695331    0.26447180413749    0.87431337777651
C         4.30133421956533   -1.10115085650399    1.55704138177535
C         4.05884312687566   -1.94360425210253    0.29428153937984
O         3.48736817047205   -1.15294367003040   -0.77693543200873
H         1.37427247070799   -1.09184835942294    0.04964412422983
H         0.93883102769917    0.58763402585880   -0.00046694666572
H         1.68422217340577   -0.09686477088271    1.43752510485268
H         2.45531515028102    2.15890762038637   -0.57548285485583
H         3.95126802846198    1.94396703187173   -1.38162401154261
H         2.36227435588951    2.39064223066095    1.91482422869737
H         3.31988127047766    4.52965686446477    1.98403070332128
H         3.25832879339251    4.18900530867332    4.27325963999495
H         4.79217696427432    4.89378950228804    3.87089875247250
H         5.71801525131053    2.60098899433338    4.00861917778773
H         4.29515193417771    2.06311180062093    4.62706781787823
H         5.97711602866578    4.34484425983129    1.87701851635855
H         7.19640574381780    1.52271271487130    1.26861201359316
H         6.98896568652779    1.99390747169809   -0.46424387676249
H         6.47783138385054   -0.53124163995542    0.28982145339425
H         5.60527621053422    0.27326281214447   -0.99470472727395
H         3.41463500997128   -1.28817918953601    2.16893788266948
H         5.21063531527589   -1.36419166715388    2.11489558232746
H         3.36328351175489   -2.76256713127028    0.52029158510694
H         5.05323793549963   -2.23419145303125   -0.05092720896814
