36
 energy: -47.837739387763 gnorm: 0.128208129122 xtb: 6.4.1 (79825abcba525fcdf90b791dcacef51065a7a4e7)
C         1.71693044085505   -0.10740234010724    0.13893026560361
C         3.20721195217838    0.10659546522980   -0.21351057373864
C         3.41641650574040    1.59572488886677   -0.41715404827355
C         4.07951716072856    1.68813428717934    1.02532572545679
N         3.42777126678111    2.27494028207319    2.18954158424341
C         3.97670977087310    3.64587125098667    2.40571716564718
C         4.22990926594252    4.03222028507027    3.90097564473793
N         4.94131665321423    3.04362297430901    4.72637285830468
C         5.31078104356468    3.48905247002488    1.71283416569743
C         5.33226379174124    2.40295880737621    0.95297207392098
C         6.36828086122837    1.76730484148932    0.13651902012926
C         5.81267034097062    0.32303174647215    0.08928498196316
C         4.44481121758943    0.21358961454649    0.92126198684808
C         4.31156965825013   -1.19050696695791    1.51212239058137
C         3.94567558490585   -1.97494340877921    0.24173938440546
O         3.60820910348305   -1.10690179408365   -0.86814965151090
H         1.37457415329365   -1.11470743173815    0.39971701718645
H         1.25907399300184    0.09337248338848   -0.83077303743142
H         1.23849087870196    0.56421380702934    0.86686371627724
H         2.54881110203419    2.14896112998405   -0.79264980858028
H         4.17787424378378    1.91479432827359   -1.14317381090381
H         2.40976348795121    2.17738264368109    2.15239355413555
H         3.38746921531936    4.46102907930314    1.97769856328840
H         3.33673956111978    4.38522071688400    4.42897323908036
H         4.80927593593769    4.95974260391951    3.79447064539800
H         5.74857326191887    2.67033408737498    4.22461039823916
H         4.31083239259127    2.24164809821369    4.79582628449004
H         6.09851845477815    4.22453270576928    1.70365939169259
H         7.33268688255070    1.87902023314490    0.64619132634399
H         6.31992515817655    2.29786500860368   -0.82004087458895
H         6.53354981631766   -0.44362641951921    0.40885077103998
H         5.50444581136556    0.06783802894390   -0.92956131883915
H         3.42784285116958   -1.20833043868039    2.15581609398142
H         5.20834820471553   -1.48202024725298    2.07606247028865
H         3.06839088220125   -2.53264600480140    0.59518423171115
H         4.77427819087418   -2.64578371236017    0.00547253971316
