36
 energy: -47.849704653356 gnorm: 0.131580716840 xtb: 6.4.1 (79825abcba525fcdf90b791dcacef51065a7a4e7)
C         1.80486347676920   -0.02289775696379    0.60480915219571
C         3.13733593359473    0.09804179345888   -0.17032917631759
C         3.42833524986086    1.54473001153143   -0.52410357341333
C         4.17076959253499    1.76715090279087    0.86453257429521
N         3.33232925888258    2.38538907732228    1.88399922557691
C         3.92894105582048    3.72182247020101    2.17643278358762
C         3.93635285158336    3.90141475502431    3.73105983951643
N         4.90423983726777    2.98050364104203    4.34735783554021
C         5.32783010835333    3.58946132888404    1.61964263073856
C         5.43183632450475    2.46880382917932    0.91909917686961
C         6.47187018537536    1.57856243762014    0.39969272619182
C         5.78852989912797    0.22169207240723    0.10168621228033
C         4.40842034224691    0.26413385703696    0.91942601624189
C         4.26127010683954   -1.07351689211416    1.64564509417850
C         4.03187824653869   -1.92834706195338    0.38876927710373
O         3.56776459421413   -1.14773289660956   -0.74015659226351
H         1.52311600552071   -1.08028249557165    0.65417509818129
H         0.98404015490184    0.50202330255741    0.11391759759440
H         2.04501531840526    0.34842999994882    1.61193505132133
H         2.52897251004401    2.15040162544108   -0.67939425148421
H         4.07060249365443    1.64956914912252   -1.41023533899269
H         2.43341149209085    2.52189055682971    1.41437003486800
H         3.36870178145374    4.56201882782650    1.75799669277940
H         2.94055467889342    3.70952689640092    4.14664132214019
H         4.29317583876233    4.90902164524343    3.98544624326366
H         5.82755354951007    3.19014316597967    3.96484449343963
H         4.63553855726187    2.02869833748975    4.08781174097666
H         6.05925490254847    4.34233917914909    1.86405713592065
H         7.26138694788546    1.37606388870977    1.13316588102853
H         6.84007303556091    2.11286813475187   -0.48222754174509
H         6.35822469801866   -0.65507076176711    0.44269807245875
H         5.49202821768676    0.18000752587324   -0.95117806274065
H         3.35181355792846   -1.10484038447116    2.25189589041862
H         5.17681158583230   -1.42254062024737    2.14282362329536
H         3.38240842211824   -2.76263013116889    0.68498646370399
H         4.99619916851626   -2.31984785711672    0.05824950310363
