36
 energy: -47.839961444213 gnorm: 0.144773889968 xtb: 6.4.1 (79825abcba525fcdf90b791dcacef51065a7a4e7)
C         1.79302937961759    0.12557363286754    0.53056897526780
C         3.17348342329092    0.11273307361840   -0.16594406389187
C         3.44977139308528    1.50672104580234   -0.69811529469975
C         4.08072302920543    1.82687951558088    0.72609984016418
N         3.25377190406928    2.55125221709977    1.68315205715162
C         3.98343630504975    3.71119044663662    2.27446451407682
C         4.07420396181156    3.62088676490002    3.83420170253570
N         4.60460626380615    2.36890238416891    4.39626418558089
C         5.34374847730075    3.57361689014804    1.63022104667019
C         5.31458352455783    2.57669644667270    0.75686505680715
C         6.42007251386735    1.80085777561732    0.19122234494434
C         5.91009089762307    0.33913519547449    0.17918609335324
C         4.46698478836614    0.36214301341309    0.88069696490960
C         4.34469159004866   -0.92183115858574    1.70216613265926
C         4.01838510528362   -1.94578292007854    0.60301238973137
O         3.47671433409003   -1.23992860127616   -0.54048926724012
H         1.80563132817689    0.20331323734009    1.62312509186786
H         1.23395425901230   -0.76905688725190    0.25247041967846
H         1.21788458895585    1.00132171835835    0.19570549547278
H         2.63817416203662    2.20636739112248   -0.92529706724204
H         4.33010240129407    1.66202899593057   -1.33813459717006
H         2.38189142532614    2.82733177601406    1.22397681507451
H         3.48306650278744    4.65990303079671    2.06360619898740
H         3.06644083342210    3.84142316586367    4.20422885652682
H         4.78108142792041    4.41847051231142    4.10157998394457
H         5.60497020349465    2.35621354560253    4.19160744478893
H         4.16034547925102    1.54658692114325    3.98162274334429
H         6.09770152295339    4.23945984477955    2.01720127732935
H         7.32414179232551    1.87809014617393    0.80686765998363
H         6.67604321793789    2.06051789148660   -0.84119951930546
H         6.48518478459400   -0.41896949013264    0.73063747896218
H         5.93783978145164    0.07399617643297   -0.88246608015345
H         3.60075093735231   -0.77708188152081    2.49034908287964
H         5.29220896075176   -1.26794805836733    2.13763620601971
H         3.45762043580185   -2.83551578725776    0.91845229254916
H         4.94676784500861   -2.41386374244113    0.26919077309661
