36
 energy: -47.841529165333 gnorm: 0.143850620814 xtb: 6.4.1 (79825abcba525fcdf90b791dcacef51065a7a4e7)
C         1.77773826953821   -0.05931749847491    0.61736261140561
C         3.15465463550086    0.13917072634522   -0.05765767674863
C         3.48171868961066    1.55967967066655   -0.47947179406804
C         4.17950769383095    1.78865170258075    0.93107860747706
N         3.33805838117585    2.47138931718901    1.90593516060792
C         4.04646477978634    3.74999282049518    2.20734963253754
C         3.95091214241602    3.83036472125089    3.76734439250030
N         4.65903377123591    2.78696865643495    4.52536426709147
C         5.42838849547431    3.57888673016414    1.61961255974682
C         5.47451681213803    2.42690826166349    0.96518960489605
C         6.50329793478272    1.64898918975017    0.27205576807853
C         5.83952664352744    0.26739262482439    0.05420809199155
C         4.50088018450277    0.30029201339691    0.93859792089775
C         4.34905852677043   -1.10518258973322    1.52164868469344
C         3.89524442286067   -1.93420450036075    0.30926776139874
O         3.39012527815244   -1.09284863944000   -0.75666307195171
H         1.39795271715804    0.88187131008297    1.02943988310021
H         1.67297006962328   -0.75353136046119    1.45244242664337
H         1.13907893556171   -0.25891224542269   -0.25564138433401
H         2.67649786300665    2.27716970505669   -0.67087214602191
H         4.23733778725439    1.56845623864914   -1.27802717923499
H         2.36358429789157    2.57708981369792    1.61188575157170
H         3.55238248993949    4.64944168480892    1.83083780546195
H         2.87195004164204    3.73852351438158    3.93630857350153
H         4.34125780739272    4.82076965807274    4.03943822017986
H         5.63011476860018    2.89223189655614    4.22754763620757
H         4.38840693840716    1.81013171087436    4.39101922749179
H         6.16079470069178    4.36824531130030    1.66477778938956
H         7.39547359032982    1.64091943093770    0.90945887418062
H         6.76877804126870    2.19568113428934   -0.63870627643775
H         6.50056796004760   -0.55647937687860    0.36049818157738
H         5.75867970290439    0.08811694819921   -1.02259181253146
H         3.68379348547886   -1.15299817256390    2.38811766819380
H         5.37699728314134   -1.40070134064373    1.77310607737215
H         3.09880440782477   -2.66255656273238    0.51118480544925
H         4.74031625699554   -2.51053531365406   -0.07299841004968
