36
 energy: -47.850241685048 gnorm: 0.132801068537 xtb: 6.4.1 (79825abcba525fcdf90b791dcacef51065a7a4e7)
C         1.82980777796430   -0.09309351960721    0.70933250901186
C         3.11031662693088    0.12864124970806   -0.12856929589448
C         3.29384899550017    1.59810416685530   -0.45983706386774
C         4.11676594342193    1.78850648608457    0.88758447181555
N         3.32709038038977    2.46489408107935    1.90906634281854
C         4.10489846079366    3.65719847172637    2.35733196626172
C         4.05652641083740    3.80096916194374    3.91494672904750
N         4.71173952851534    2.69278203653720    4.62721268157474
C         5.44411401548051    3.54558667366380    1.66561682767401
C         5.37493176543678    2.49682024947518    0.85768462884281
C         6.29821592457092    1.78173010178215   -0.02559089646824
C         5.82542204034665    0.30752363310011   -0.01924710311682
C         4.47205952797686    0.30852764105372    0.84308171619608
C         4.35676595897862   -1.03234251834768    1.56911991836292
C         4.14278401705630   -1.88623742903913    0.30889482853750
O         3.50243745866977   -1.11235541867249   -0.73527780881410
H         1.72971273302762   -1.17749162594129    0.82741235075880
H         0.92939954814298    0.04657118697974    0.10931054856468
H         1.74236022274412    0.48320019405266    1.64212309142900
H         2.36166979624561    2.15391493420375   -0.60790112386718
H         3.93112936365447    1.84168985238177   -1.32196681146674
H         2.47236692516771    2.76623453364339    1.43379891361920
H         3.63946399970659    4.54432714489452    1.91999891240694
H         3.01583597663890    3.81693636469348    4.25824163088243
H         4.54408443902239    4.77017174598166    4.08884397537737
H         5.62078100516365    2.49755627414875    4.20495222300167
H         4.10154704315185    1.87626315031586    4.54683899903425
H         6.22973742542229    4.27969998580839    1.73923223313922
H         7.33607658170591    1.81659503819679    0.32648145437100
H         6.32774798749246    2.09065495803035   -1.07560640611134
H         6.60310445609690   -0.29908776317558    0.46736053416597
H         5.62582634481244   -0.02799990330862   -1.04187095792311
H         3.51562042657607   -1.14325042572122    2.25890686840463
H         5.28044656696552   -1.26438033401587    2.11701848264394
H         3.53220691466891   -2.78360931344628    0.47473577177569
H         5.08800980838724   -2.27597853493677   -0.07461672258651
