36
 energy: -47.836246757827 gnorm: 0.130688061793 xtb: 6.4.1 (79825abcba525fcdf90b791dcacef51065a7a4e7)
C         1.81793976030547   -0.00521978185416    0.51721183924045
C         3.21227319366381    0.07120247954456   -0.14682323474883
C         3.42749325484590    1.51602566877903   -0.55780986381148
C         4.15912595241029    1.77599542008426    0.83003720540133
N         3.33957459207696    2.48734955936007    1.80308590467576
C         3.98139833565089    3.75666215302694    2.25521981124315
C         4.04544912399333    3.82843482393845    3.81724407367247
N         4.73639257412796    2.65786108876672    4.38032488526757
C         5.32373770045078    3.63773257190152    1.57081779732711
C         5.39464751979129    2.52323881504710    0.85644595731132
C         6.45468400452476    1.77638427776670    0.17636199994087
C         5.99642285975212    0.30231199328419    0.29454259071640
C         4.51023855515215    0.29599707668032    0.89986767834386
C         4.23465768149811   -1.01430362794691    1.63846374756027
C         3.88850068416112   -1.97579577311653    0.49007345116732
O         3.47178643719902   -1.23518471937700   -0.68341625322306
H         1.55403805349783   -1.03411564346086    0.78481288282611
H         0.97555150361080    0.34811603762232   -0.07928073458644
H         1.87122447605575    0.57948549208953    1.44734100864246
H         2.47406032513565    2.04762368666856   -0.64823015834447
H         4.08283485028886    1.60330060483731   -1.43623939634861
H         2.44828363236571    2.79564838131290    1.40585844660175
H         3.40927697869455    4.55697485633811    1.77870805275025
H         2.97892027468341    3.75039471395408    4.05717921331231
H         4.41100738075781    4.80945225857632    4.15082867844388
H         5.72752948963662    2.88696197277420    4.46939675864493
H         4.68177554922801    1.93165399402104    3.66259365062373
H         5.96503875041148    4.48776413597497    1.73732617809403
H         7.42491598658352    1.93539275261417    0.66184264815530
H         6.62195717479424    2.01336805671649   -0.87943043483539
H         6.75369539289233   -0.26175983481726    0.85838265232627
H         5.97950332754534   -0.22503674505398   -0.66451479964042
H         3.42762340638191   -0.92198491688716    2.37045100826071
H         4.92892954837782   -1.64889032177163    2.20636037797107
H         3.14170217181714   -2.73042840507707    0.77008325920946
H         4.70142872214021   -2.63738262326588    0.18367194033881
