36
 energy: -47.839524548437 gnorm: 0.137748275758 xtb: 6.4.1 (79825abcba525fcdf90b791dcacef51065a7a4e7)
C         1.93410816415747   -0.00022680542430    0.91160893478052
C         3.17440558468080    0.13133503037044   -0.00233988523949
C         3.33477627221776    1.54859665543802   -0.52040788909804
C         4.13326466972130    1.88225393674908    0.81378822323476
N         3.30697104253381    2.62367397381924    1.75827119604841
C         4.08628603884560    3.74053586493607    2.36884871691470
C         4.23317566123916    3.42283364174141    3.89418879569485
N         4.01795208044395    2.00681643347687    4.23075944084987
C         5.35938333899664    3.66450066638147    1.55775855712787
C         5.39536650517944    2.58379096474897    0.79080132106618
C         6.35218725424760    1.93494454016051   -0.10779513705521
C         5.86598628052555    0.46512238765562   -0.09828370783131
C         4.58416407853465    0.42882277286731    0.86650449851770
C         4.53636623802300   -0.85577882544122    1.69467777803489
C         4.28711366035596   -1.81124007159777    0.51651860742132
O         3.46784570115101   -1.18320310519883   -0.50014414801236
H         1.65094403088104   -1.05716872410420    0.96233343148407
H         1.10444896136577    0.54024014586915    0.45353836720939
H         2.22745939227194    0.36956730720114    1.90511643812858
H         2.34517221254964    1.96026054890797   -0.74629123535856
H         3.89427275881507    1.83707029243762   -1.42178162159635
H         2.37100515926376    2.70848281417529    1.35328635018162
H         3.75550042849767    4.77271718650539    2.22718245648484
H         3.45198748805187    4.03776592836419    4.35543302776879
H         5.21060106567002    3.77892804957068    4.24794448261741
H         4.62370934805373    1.36668878227067    3.71494152423123
H         3.08244379926894    1.73267319637663    3.92226692667114
H         6.05582250946976    4.46952835656595    1.72642578440605
H         7.37485432734414    2.03661803950086    0.27448722968339
H         6.21965818979395    2.36057502301513   -1.10785214275448
H         6.59308955495205   -0.20181085047203    0.38759199810695
H         5.59467991678225    0.09049884827122   -1.09036439833837
H         3.70609120895454   -0.90045401190297    2.40480446654941
H         5.44468090702520   -1.11061210431888    2.25792259447578
H         3.80437506610690   -2.74723553756892    0.82709847463324
H         5.20190267908157   -2.10554019410389   -0.00211375379345
