36
 energy: -47.848886857907 gnorm: 0.134430628903 xtb: 6.4.1 (79825abcba525fcdf90b791dcacef51065a7a4e7)
C         1.73586384709628    0.21548342207898    0.40868766193971
C         3.15400814902412    0.25706911869863   -0.20619934671770
C         3.47476601340939    1.68696116443284   -0.60023851404707
C         4.05328409608256    1.93585009800638    0.86002217658339
N         3.26283694918971    2.64029130912435    1.86175507491197
C         4.12347638309992    3.62855314625091    2.57600681965291
C         4.18185315030118    3.13957933296950    4.06149339985263
N         4.81315599608972    1.81906309712314    4.21115738835584
C         5.40446867463386    3.57661597598407    1.77551533981993
C         5.31721937582885    2.63433726685042    0.84710270123087
C         6.34155642313763    1.90492117838743    0.09699004675815
C         5.86202487740733    0.43722629390433    0.21003975775620
C         4.41074818269132    0.45612907152274    0.89461315701076
C         4.24906584190412   -0.90247379582827    1.57755820893422
C         3.96379780069143   -1.83277239581027    0.38749151461411
O         3.50267050673550   -1.03377248097310   -0.72973466498518
H         1.69822087556600    0.77562664483599    1.34927455334316
H         1.50375839108901   -0.84629736721604    0.50364121387092
H         0.95212475146630    0.67372427502419   -0.21230198586079
H         2.57405116379793    2.20825726902902   -0.94195443362721
H         4.18056451748786    1.88821032706005   -1.41881973252646
H         2.42614249421235    3.00041349401682    1.39539491973181
H         3.74064460523960    4.65115178215562    2.62717897143209
H         3.17566421292048    3.06484711915325    4.48944414551346
H         4.75419136151180    3.84851066180444    4.67562048562458
H         5.77837918042101    2.00497160671332    3.93447051020964
H         4.44285866599891    1.31273139142675    3.40368851603597
H         6.23659264243975    4.19781028154272    2.06401674823904
H         7.39392863401268    1.99806546666468    0.39052390697182
H         6.26142610538089    2.27202454282653   -0.93143278671334
H         6.50114691890489   -0.20151507486502    0.83700610458858
H         5.75639162346615   -0.05065563944608   -0.76411981196220
H         3.33938712398184   -0.91173901172168    2.18421395224902
H         5.09450961122384   -1.09666144470924    2.25189955174944
H         3.22779966634610   -2.57732572024282    0.71844621024179
H         4.92166810997884   -2.27776767512336    0.11019256067285
