36
 energy: -47.847537420475 gnorm: 0.143815041764 xtb: 6.4.1 (79825abcba525fcdf90b791dcacef51065a7a4e7)
C         1.82897422089976   -0.07243027313199    0.53677033217097
C         3.20814233650654    0.20769343484957   -0.10383458816521
C         3.37949276283841    1.66748550692726   -0.48118038878931
C         4.05775607963050    1.87199692393364    0.94259069288474
N         3.23208885065836    2.62187536479041    1.88092371250805
C         3.97262126297294    3.80332934078991    2.41317881143944
C         4.34836074467629    3.38454169276618    3.87352477795482
N         4.91591930346349    2.02867816469441    3.93846390042371
C         5.24929187799280    3.78161703483596    1.60443532374408
C         5.27638484427665    2.64660444378588    0.91999101323400
C         6.28207209797444    1.87247746592964    0.18971451221151
C         5.91121275035088    0.38077132448897    0.37447149085523
C         4.44317218390068    0.40105963056023    1.02227344948127
C         4.14565873208600   -0.97796735875462    1.61229649374010
C         4.00917665536937   -1.83379100728533    0.34263882180271
O         3.64492240455618   -0.98499301933088   -0.77364716031009
H         1.13168252116219   -0.02513964393079   -0.30669217456784
H         1.56024985674096    0.68769259496570    1.27179958566766
H         1.73430646227133   -1.10714694671851    0.89768473738899
H         2.47779325163680    2.25697375229478   -0.67929204926695
H         4.13308022261966    1.73872337508985   -1.27852539576507
H         2.25145358574589    2.71337407345961    1.60303908887698
H         3.38347152388098    4.72215781051991    2.35365105733037
H         3.47502097671383    3.32428932612546    4.53291102179272
H         5.06080098485946    4.13276661409511    4.24755031095208
H         5.75915176018635    1.98223447317785    3.36437731674715
H         4.16148492506464    1.44548170801431    3.56939947560438
H         6.08746593011524    4.44141886516550    1.75829084131039
H         7.29004707262225    1.95653453807438    0.61308916947287
H         6.29023366381455    2.20757311652853   -0.85263071213133
H         6.50393706008891   -0.00590964143638    1.21632066791013
H         5.96830235224874   -0.16656241832838   -0.57175289403436
H         3.23601011997789   -0.91011205573393    2.21526205378860
H         4.91859298739417   -1.38064476862852    2.28135837605809
H         3.27283209866324   -2.63941924853269    0.46240421044227
H         4.92225069731516   -2.29224439289486   -0.04277955669164
