36
 energy: -47.840198592473 gnorm: 0.149218076152 xtb: 6.4.1 (79825abcba525fcdf90b791dcacef51065a7a4e7)
C         1.80032111654145   -0.03351063477869    0.49036238976759
C         3.19969796560092    0.12903912302324   -0.14703120990491
C         3.43891326519263    1.54890031827415   -0.62610727402482
C         4.12541563653150    1.87643664271274    0.77046865636805
N         3.28018132142346    2.54239500994378    1.75362225576987
C         4.03652749744388    3.71120374351949    2.29152904508852
C         4.01692713381564    3.54909802360440    3.84797084035233
N         4.75413028978617    2.32503336055361    4.19854593005976
C         5.37019536502936    3.65985697019362    1.58222045107849
C         5.39614293868126    2.55858755231751    0.84466791380845
C         6.45064880263988    1.80756669373384    0.16058606378802
C         5.87635786860934    0.37330884927820    0.26035195918970
C         4.43428873030367    0.39801872911665    0.96393416824536
C         4.21986602784720   -0.88091680350916    1.77430653181183
C         3.94375749855563   -1.81185809158032    0.58258324899155
O         3.59105425208856   -1.15407971557172   -0.65925473146030
H         1.78775829033651    0.69189007235277    1.31104326388554
H         1.56267203796046   -1.06507976428942    0.75428585190567
H         1.06930596802554    0.33132006417183   -0.24609887050318
H         2.45856441606852    2.02788812132814   -0.72250943539037
H         4.12994496063016    1.61525634986345   -1.47863290835693
H         2.38647627446439    2.72497699655256    1.28973387192888
H         3.59453081855500    4.68646699021088    2.07155816064397
H         2.97198533490271    3.50535193450191    4.17557702335231
H         4.56766204893359    4.41719335116111    4.23579588277796
H         5.71352101525558    2.33313787203898    3.84886443741922
H         4.43402006193495    1.39451041924563    3.92077915599401
H         6.17085394420882    4.34933460838169    1.79461633329197
H         7.37842256561470    1.86634884542110    0.74205460625268
H         6.71554705121624    2.14957619284814   -0.84524573457441
H         6.53034273709631   -0.23787488744966    0.89934530327494
H         5.75705251002812   -0.25768258182333   -0.62609601733504
H         3.45706300935850   -0.81547705830646    2.55499950098768
H         5.17773413987314   -1.10657528315924    2.26296500975041
H         3.02221795150941   -2.36658282641064    0.80310360022960
H         4.75532800015780   -2.50140620165903    0.34111330072995
