36
 energy: -47.844601046317 gnorm: 0.137520345754 xtb: 6.4.1 (79825abcba525fcdf90b791dcacef51065a7a4e7)
C         1.77304927254778    0.17299771972680    0.50604940635748
C         3.18453506072464    0.07932925781035   -0.11835650773959
C         3.42497662051791    1.50153195555317   -0.58981283526755
C         4.05281519813150    1.90680637195271    0.81395406787301
N         3.19654420758117    2.63685117163817    1.74042451412428
C         4.00596466825397    3.70080977009745    2.40401163120119
C         4.18096788710910    3.31882559706721    3.91153794096510
N         4.77572193983557    1.99168050108133    4.13438145390383
C         5.32805744125355    3.64417527722599    1.67374554460784
C         5.31233711106748    2.61282218755597    0.84096988148126
C         6.37250035111942    1.89358091609440    0.13193595767251
C         5.81382532783465    0.45078711639757    0.18749927203554
C         4.41445642188821    0.43625450307540    0.97283841005618
C         4.28304411717789   -0.86716493780391    1.76162573810967
C         4.15251587495006   -1.82693731059898    0.56793757088115
O         3.68080399828080   -1.16631243709186   -0.63218586385051
H         1.37025385795000   -0.75756913024555    0.92039505156511
H         1.15613884414738    0.63367995073121   -0.26690658709723
H         1.62393078737012    0.94041613327947    1.27980159231201
H         2.54466427208514    2.05703211795993   -0.93080605577649
H         4.20083977221849    1.59934136115048   -1.36259847627649
H         2.34001050065649    2.92595232884506    1.26083310116976
H         3.51544285000495    4.67324768503866    2.31106232329468
H         3.19442568550320    3.33502068421892    4.38862820851853
H         4.78553893658767    4.13116834544664    4.33803511158646
H         5.59260562304028    1.91883867793775    3.52596669744587
H         4.08884447432714    1.27600051008812    3.88639075344171
H         6.20882831539625    4.22056126149937    1.90519226978271
H         7.40399822861309    2.06859602604852    0.46012354916346
H         6.31897046132415    2.21960971571746   -0.91194097141897
H         6.45554297520086   -0.23002628214157    0.76563930164126
H         5.75805424373301    0.03444767074076   -0.82330490623739
H         3.34978043176810   -0.95493483775384    2.32460686172104
H         5.12145530508854   -1.15821446065478    2.40937346227887
H         3.35263082694530   -2.56627505453993    0.70631215611754
H         5.14739457198994   -2.15348418389013    0.25807541901370
