36
 energy: -47.834514196993 gnorm: 0.149564266711 xtb: 6.4.1 (79825abcba525fcdf90b791dcacef51065a7a4e7)
C         2.04550779394333   -0.65894683019370    0.75167079880605
C         3.19482669905332   -0.12730543497518   -0.13566912076287
C         3.17177341565911    1.35781149829624   -0.44653880941991
C         3.97426248346477    1.67421936058840    0.88945801610832
N         3.35280926179104    2.07083029846206    2.14683964087019
C         3.88970305543859    3.38279912052413    2.61374445836047
C         4.23897175570759    3.23063406994098    4.13164787347200
N         4.02919826181437    4.51565358455702    4.81679431429240
C         5.05207396569203    3.59007854198191    1.67015851641916
C         5.06503150516189    2.61357801654960    0.77364836522457
C         6.14205969069911    2.10195751438447   -0.07619747374024
C         5.82743892936508    0.59670995505918   -0.25536937623225
C         4.58561302360037    0.29075366262959    0.71388871521093
C         4.80930372779463   -1.14086350839728    1.20255179003868
C         4.45859718008451   -1.98647232170922   -0.03237441244911
O         3.66485581015008   -1.20551118850765   -0.95936304402388
H         1.09607959456592   -0.62004728970449    0.20673590341182
H         1.99444210286154   -0.04580480731979    1.65262402607244
H         2.35016342492993   -1.68148737253293    1.01898255127998
H         2.14038724677487    1.68793091847414   -0.61106959112396
H         3.89449695574708    1.66672079219347   -1.21528693716539
H         2.34155812255284    1.98114366383374    2.27554411967440
H         3.04420446034300    4.07417901663914    2.65860748511709
H         5.29082831796801    2.92731737379643    4.18398975488095
H         3.57028668361504    2.52353947295724    4.64173045123441
H         4.38960018557187    5.29809856216029    4.26846621065319
H         4.51866563793614    4.39847328632000    5.70684394993006
H         5.65199360940786    4.48480620599300    1.63692377472599
H         7.09971906870751    2.18003138761696    0.45211893271399
H         6.38522733873287    2.55285681216660   -1.04387438304722
H         6.60321485857904   -0.07190684401439    0.14547672503698
H         5.57396401139584    0.30002335199626   -1.27806266204838
H         4.11528940197918   -1.46541278830006    1.98270836860030
H         5.86389270766353   -1.26302794481744    1.48563866932163
H         3.93437157514498   -2.91786889220378    0.21916457199752
H         5.33287774386715   -2.19325344994906   -0.65310470597481
