36
 energy: -47.850052323422 gnorm: 0.132747001682 xtb: 6.4.1 (79825abcba525fcdf90b791dcacef51065a7a4e7)
C         1.78099785512384   -0.02542128407592    0.51551087280248
C         3.17894977753923    0.17900733516573   -0.11289014124493
C         3.46449675157790    1.58191584548363   -0.61593507303670
C         4.13108969114885    1.87625331405632    0.79757447561300
N         3.25259173050746    2.50563915542436    1.77564777785241
C         3.99736490915149    3.65375251712351    2.37118599650054
C         4.18903170599952    3.52108301577428    3.91871182424052
N         4.59895246495956    2.18257316623919    4.37154960825172
C         5.33388720894272    3.60733445879788    1.66692842539873
C         5.38321347710313    2.59567833473362    0.81160962653621
C         6.36608440949637    1.85491611127150    0.01837632903298
C         5.93132349222576    0.39123940631406    0.27429103486546
C         4.47173447409184    0.39913112968870    0.94117894604944
C         4.29685471758584   -0.93711088445549    1.66383435595579
C         4.01561375780371   -1.82235388294183    0.43895055584656
O         3.59415261043282   -1.05610465371745   -0.71624039837648
H         1.43187383241962   -1.06052602676494    0.43456853603943
H         1.10111532461877    0.72826028005148    0.11552166514905
H         1.79929587414437    0.32587574146350    1.55767944351655
H         2.50018703633534    2.07597800671783   -0.77660831891805
H         4.20656239514918    1.73736960224606   -1.41211379957679
H         2.33468293423392    2.80532273279778    1.43672223214451
H         3.55914482613389    4.64243309076833    2.21193599184907
H         3.28309499128799    3.75949257375784    4.48755491372498
H         4.92021179128925    4.28747038576728    4.21082961339301
H         5.49072353946450    1.98989940212067    3.91286173149679
H         3.85755716267202    1.56331618419356    4.03636058209063
H         6.20790133633677    4.18342254479612    1.92338010170753
H         7.41688448433447    2.08265843007813    0.23349912775131
H         6.26830423473079    2.10334348419788   -1.04349093739137
H         6.57016114872514   -0.18508995654306    0.95933495136173
H         5.87974921385586   -0.11395536638220   -0.69539566791035
H         3.37542342050496   -0.80767601866721    2.23815421940195
H         5.14175648376234   -1.26155375279035    2.28680946760673
H         3.25310296850436   -2.57925492320782    0.66536166869605
H         4.97550069806839   -2.26759761251923    0.16912452574677
