36
 energy: -47.849156885653 gnorm: 0.127776209291 xtb: 6.4.1 (79825abcba525fcdf90b791dcacef51065a7a4e7)
C         1.73549145412778   -0.07233190350160    0.20688029035802
C         3.22519598877358    0.04899780916405   -0.18936226535283
C         3.48026714564588    1.50876717626142   -0.51609738198943
C         4.08310427924790    1.77612433655096    0.93100237357295
N         3.30427570771409    2.50382707917984    1.92517926868269
C         3.92355980778627    3.80702424665050    2.30686186911885
C         4.21325898994869    3.90279818795036    3.84181312258703
N         4.98549027165337    2.73475106531565    4.29351046151365
C         5.23609493511331    3.67671374725087    1.56882661292784
C         5.32223062253085    2.51784497669830    0.93081763718411
C         6.32612248161112    1.74955839021978    0.19195359920813
C         5.84058190553618    0.28363810212012    0.30234867843293
C         4.39407073106534    0.28700671144588    0.99718404212202
C         4.14480197916227   -1.04536070868271    1.70501103133123
C         4.02572562529235   -1.99898201751063    0.50521133819219
O         3.70707263303550   -1.21507031660749   -0.67087381934469
H         1.55190670378624   -0.83212428774821    0.97427412350947
H         1.19916186479550   -0.23975027253668   -0.72831446243323
H         1.46000158404820    0.88698913332941    0.66912294201243
H         2.64195702860599    2.10582788593528   -0.89101243881587
H         4.27240389114794    1.63545468248696   -1.26789363881761
H         2.28522622969987    2.45867393226112    1.84310146941156
H         3.27614596293502    4.64777507726591    2.04441170730025
H         3.40508777527910    4.13336743294319    4.54526179620358
H         4.90056403412673    4.75171124083654    3.96124986252696
H         5.51055393522650    2.41821069302718    3.47688096152653
H         4.36505779256745    1.93963205658473    4.46187669986670
H         6.06050993213921    4.36802929607395    1.63182222932685
H         7.37343048787668    1.87052012858721    0.49334943866496
H         6.29061723841341    2.12605424297054   -0.83558205574497
H         6.57602854806250   -0.27282722610954    0.90153053267264
H         5.80627329827447   -0.22864091992930   -0.66438145997243
H         3.23468299720120   -1.17144193616630    2.29781739302329
H         4.97921887924118   -1.27449161322074    2.38211347987183
H         3.23403642834876   -2.74351729593812    0.66167013052049
H         4.93618793355788   -2.55958420139453    0.28336765978005
