36
 energy: -47.846821324673 gnorm: 0.145590701391 xtb: 6.4.1 (79825abcba525fcdf90b791dcacef51065a7a4e7)
C         1.78444089038519    0.04459660245369    0.52658541628219
C         3.17686136346229    0.11146954246154   -0.14247503985572
C         3.46546824868331    1.53468275957731   -0.58283163908582
C         4.05784881267822    1.86405061066781    0.85577610357610
N         3.15872044834265    2.58410525811245    1.74886200024695
C         3.94117735864321    3.73810711779019    2.28136377810343
C         4.22775119968598    3.66824674379995    3.81829857571810
N         4.83523140369532    2.38416227539147    4.20144423853672
C         5.28769445199200    3.58339784940426    1.61249750678041
C         5.31699494056759    2.56526791173360    0.76396668917508
C         6.40259407581285    1.73890237531526    0.23238626994657
C         5.84372381548295    0.29824158522677    0.32735756146672
C         4.38675655502964    0.38380843827885    0.99453581590326
C         4.19700688706895   -0.95091620919513    1.71624356239571
C         4.06706631598350   -1.88156207931214    0.49964757671830
O         3.61667590468725   -1.15062820386280   -0.66745041727777
H         1.63126092886724    0.64971551789583    1.42672325039474
H         1.71620054530528   -1.01983632873493    0.75591782304971
H         1.06563116815259    0.28879534747877   -0.26936643185491
H         2.65243208596875    2.17780612221060   -0.93662702343562
H         4.24894938544661    1.61173567877703   -1.35026119013534
H         2.24553022152048    2.84104548514468    1.36506161553040
H         3.47516325173379    4.71480432230118    2.12715562438342
H         3.34821771172203    3.68061080286897    4.47206527396504
H         4.92190106922878    4.47159043486198    4.10132084384491
H         5.82793845431417    2.24722816467734    4.00508955657083
H         4.27993490315046    1.70399837426729    3.67749695828475
H         6.03703470255863    4.34503669308238    1.75371077130573
H         7.37219108417435    1.92504305559347    0.70941723636369
H         6.55117588578810    2.03688047098497   -0.81067258723235
H         6.48384408200376   -0.29819765441779    0.99373628281428
H         5.68000209274581   -0.27617065622623   -0.58993182177706
H         3.23590917175893   -1.02745034418629    2.23205953832913
H         5.05283876752987   -1.14103033481240    2.37853403446472
H         3.30444176953404   -2.66681474685323    0.58547279522343
H         5.01068710167469   -2.32631209866959    0.17683451487524
