36
 energy: -47.847673804374 gnorm: 0.148869695641 xtb: 6.4.1 (79825abcba525fcdf90b791dcacef51065a7a4e7)
C         1.83481425286729    0.03062176083055    0.64922300523768
C         3.12173708754041    0.21253511130134   -0.18844387340373
C         3.44213491017850    1.65718071949705   -0.52472950068073
C         4.15526011274751    1.75842800800916    0.89308275084753
N         3.35549608570247    2.34358486137110    1.96195217435709
C         3.95356638892290    3.66789926613041    2.30256999856501
C         4.00776513204552    3.80027711558704    3.86100261041565
N         4.82598336458432    2.75045538071472    4.48797866040438
C         5.31170580736239    3.57088387340488    1.64646737003012
C         5.41928260756190    2.45541669937626    0.93822175498073
C         6.48973186827948    1.66993125912494    0.32086106721240
C         5.81286735391431    0.29420011565113    0.10620491878039
C         4.41276676173046    0.25768516934498    0.88952290554150
C         4.27768854082458   -1.16108356872868    1.44378458761234
C         3.97974832773489   -1.92517952966672    0.14359957472023
O         3.47256813074855   -1.00866783369131   -0.85740399022125
H         1.56354372680310   -1.01288331356640    0.84258944913810
H         1.04364852901697    0.52258137258099    0.08150820050513
H         2.04746336992427    0.46058896043990    1.63905548968448
H         2.55904665000120    2.28457115522394   -0.68703476878889
H         4.13485073987309    1.76547220282161   -1.37157405000519
H         2.36210663063668    2.53830681577980    1.81195835551311
H         3.32872720851211    4.48780427922525    1.93895138688378
H         3.03857485429877    3.80601959436859    4.37264716499558
H         4.51920861813289    4.75669090190839    4.03708485898071
H         5.78930713460637    2.89144795043958    4.17991728998814
H         4.58369035374374    1.80688142747586    4.17739826622758
H         6.07424293277533    4.29848477855341    1.87158906687591
H         7.30759034726775    1.53831366534943    1.03926872455059
H         7.02017600720038    2.14417480959559   -0.51134164623728
H         6.43838608053774   -0.51220002357816    0.51608227993866
H         5.66000857802325    0.12427204554134   -0.96427753100491
H         3.38679042887064   -1.17836378641920    2.07753087030610
H         5.14963752899236   -1.39637546806681    2.06953448578767
H         3.13908663002617   -2.61167506941924    0.30971910807365
H         4.72372320208627   -2.55427877811181   -0.34951964313135
