36
 energy: -47.844011959332 gnorm: 0.136194946491 xtb: 6.4.1 (79825abcba525fcdf90b791dcacef51065a7a4e7)
C         1.82871825820597    0.06102211949716    0.33312222582325
C         3.25848644586017    0.13955614037199   -0.25043924391669
C         3.58534495377462    1.60312499430074   -0.48254578646876
C         4.15321210033253    1.73707084582376    0.99683771417511
N         3.26132806421764    2.31072217214125    1.99682767451066
C         3.89142220069966    3.61573781240707    2.35380497652048
C         4.18740334465937    3.85550713758992    3.87172441933808
N         4.93042723341140    2.74916639180896    4.49512747733321
C         5.22824950561001    3.64481950732414    1.64919705344430
C         5.37620306689613    2.50505999988954    0.98850829365652
C         6.40848250350779    1.79130347958434    0.23423115251902
C         5.86534139102877    0.34232709764137    0.18602128386677
C         4.44889149566707    0.24470174810557    0.93391237199138
C         4.25298463742230   -1.14664263701761    1.53735101187947
C         3.81256247552013   -1.98312376534462    0.32515477110847
O         3.65575005376133   -1.11529670608768   -0.82441890615453
H         1.51259634486055   -0.97115378690369    0.51902799457136
H         1.06817278303914    0.40121179926476   -0.37122791808249
H         1.82675486242730    0.63883180296311    1.26906661642103
H         2.63219163896926    2.13815356608823   -0.55360778700301
H         4.28132990187991    1.81547264116117   -1.30670680683306
H         2.30432405507606    2.54747740686477    1.72236878650640
H         3.24533006272922    4.43804721271282    2.03559290817403
H         3.30283933248871    3.88546529327157    4.51809268547422
H         4.63883607074290    4.85235450785442    3.97077261275297
H         5.73582163499488    2.52757135985368    3.90775289659599
H         4.40087027178792    1.89822239212859    4.29273769856233
H         5.89232930188785    4.48813591578164    1.74595024177278
H         7.42245181607601    1.83034223500407    0.64976389854266
H         6.52802315210340    2.18308297961976   -0.78117917441943
H         6.52076174406950   -0.34592152112094    0.73945810493754
H         5.69566664491088   -0.02447706105983   -0.83124919235810
H         3.47568880026789   -1.25911043960716    2.29813652143955
H         5.16767823535300   -1.53902011748394    2.00274954383452
H         2.79957612424853   -2.37489476805175    0.48626979684166
H         4.41497398890063   -2.78920216294140   -0.09883700720707
