36
 energy: -47.847567528608 gnorm: 0.128326733040 xtb: 6.4.1 (79825abcba525fcdf90b791dcacef51065a7a4e7)
C         1.76322304822905    0.05596626048497    0.41202107655915
C         3.21144999944653    0.13289317111228   -0.12432730634107
C         3.42756342705909    1.56640116405473   -0.57276182935426
C         4.07042066603353    1.84794228363414    0.85428383583544
N         3.21104213296766    2.51548801007956    1.82400759147354
C         3.98039787959134    3.72224421670235    2.24750308693962
C         4.19784443323694    3.63025070183119    3.79457380000003
N         4.75741171697896    2.31851728177776    4.15643787095389
C         5.34098807556797    3.64980827439610    1.59330687965268
C         5.32669715265282    2.56005527339180    0.83853153344024
C         6.37859471471227    1.80065257835496    0.15970732841827
C         5.94685259245679    0.32364629646674    0.32973733201626
C         4.47262103385586    0.38321320428481    0.96084365730991
C         4.31091665606031   -0.92942973589172    1.72842237535362
C         3.96680647729376   -1.86409355896289    0.55748950227806
O         3.61429738585879   -1.14196987366982   -0.64812581687659
H         1.62055123040008    0.63814083209631    1.32886274006133
H         1.57064143799050   -1.00136111571949    0.59974081696927
H         1.07917124037376    0.46831713235368   -0.34421940485069
H         2.58103606590776    2.24659753915035   -0.71604806345966
H         4.07510238558919    1.60971681436465   -1.46019916124000
H         2.28963266669661    2.76686082726156    1.45651106360278
H         3.46522517718825    4.65647836995904    2.00940570930387
H         3.24419639815590    3.72235767778925    4.32675295147936
H         4.84537980504474    4.43355916204994    4.17233058898484
H         5.62657186405010    2.16332031436406    3.64336093818347
H         4.08490030072009    1.56259803663041    4.00874772500614
H         6.06995045807297    4.30846038190722    2.03640617549145
H         7.39126746341126    1.86828995199777    0.57473063822815
H         6.36368006027939    2.15862610615066   -0.87492873700332
H         6.64941719731065   -0.20263773096339    0.99229481500790
H         5.86715572639827   -0.33779412427308   -0.53877807744322
H         3.48048209894998   -0.82254016889375    2.43169008188373
H         5.16048218530388   -1.35275973910118    2.28182130666587
H         3.17767966952802   -2.61812525958549    0.67706789528241
H         4.87994524152657   -2.43837302511474    0.38774933004537
