36
 energy: -47.839805376304 gnorm: 0.140817352083 xtb: 6.4.1 (79825abcba525fcdf90b791dcacef51065a7a4e7)
C         1.74389774717797    0.08141044196764    0.64566631720896
C         3.08144812629604    0.17576753298617   -0.12440146098319
C         3.36278336524150    1.60500701354428   -0.54968809260056
C         4.11627459945961    1.86617791327383    0.82618649591026
N         3.26554541376521    2.48899239764091    1.83260334748778
C         3.97100082696231    3.66229800788096    2.42691290680959
C         4.17154236276197    3.49336669582748    3.96977353373717
N         4.82165624371418    2.21681786461847    4.30515502335696
C         5.30912579657142    3.62545712991825    1.72513684501460
C         5.36318985416088    2.59122447851238    0.89755510103229
C         6.46146606342469    1.80237273427696    0.33587413101931
C         5.81939507584843    0.41849542825465    0.07226938412462
C         4.42596199328175    0.37588514550486    0.86708426515403
C         4.45914075152218   -1.02730091848980    1.47398206252761
C         3.96050300286229   -1.83511896321471    0.26489874019640
O         3.39654978253579   -1.04539569080775   -0.81098577938478
H         1.25904494270184   -0.83795338807075    0.29987877070171
H         1.31135038941763    1.05669243297547    0.41764135459320
H         1.90030625848289    0.20399410374531    1.72750244777958
H         2.46883164739957    2.20593443389576   -0.74854281338957
H         4.01435496090031    1.69563652772148   -1.43057895494276
H         2.41714855546209    2.83350701048619    1.37568996114436
H         3.45388537766113    4.62174547818595    2.34361289646804
H         3.22650796233240    3.44924113940141    4.52304185727620
H         4.66671579213164    4.39667337604655    4.35206537112654
H         5.77742089858137    2.07072656355392    3.97660570256778
H         4.38748618750151    1.53011074717340    3.68432687808517
H         6.10879551644702    4.22556235135929    2.12756421579872
H         7.33197621867605    1.77225184774129    1.00192972293973
H         6.82099711599744    2.24717358718502   -0.59779010230453
H         6.43923556174496   -0.41804005083329    0.42661453199431
H         5.68531015638298    0.37809816804151   -1.01334718104046
H         3.73547011052192   -1.17583141246543    2.28012839568418
H         5.44714878527027   -1.34811689918206    1.83194504093642
H         3.16773426913811   -2.53425361498902    0.56207274808130
H         4.80422839649936   -2.34716342467252   -0.20240091508205
