36
 energy: -47.837520383572 gnorm: 0.139767171801 xtb: 6.4.1 (79825abcba525fcdf90b791dcacef51065a7a4e7)
C         1.82684028574427   -0.08119629078985    0.56457661510927
C         3.21284160381884    0.15497513255201   -0.07898539104761
C         3.33594171549944    1.58632964885574   -0.56767172392729
C         4.05743561022280    1.91260111420847    0.81145250784385
N         3.24757767009591    2.42682374073780    1.90882122376634
C         4.02746021934838    3.58874856259377    2.42769611932264
C         4.17113272209142    3.44587379509721    3.97950752386453
N         4.57192599243423    2.06927100106415    4.30971234838229
C         5.30415533834005    3.61075179686196    1.61899915930650
C         5.29041537919361    2.65608190618748    0.69928818624983
C         6.25951804057879    1.94910956844385   -0.14036256838807
C         5.87959251406079    0.45451625393058   -0.00359108016882
C         4.54875582125009    0.47367061102751    0.89290705187158
C         4.44584405060185   -0.79322576066790    1.74304798074951
C         4.05622142215951   -1.80088529360765    0.64947194694364
O         3.75175558691771   -1.08175026355784   -0.57092919145355
H         1.72434827374162   -0.84746743967079    1.34059532311957
H         1.22926996828696   -0.44233150053696   -0.27373039151131
H         1.52306234339143    0.92699948715341    0.88257035986162
H         2.51954368815157    2.28325646895199   -0.78583198818161
H         3.99104814868891    1.64641322867378   -1.44855394330120
H         2.33495286611995    2.80352439110889    1.63965588504820
H         3.51786835861430    4.52443891851031    2.18338807358554
H         3.33510451483080    3.73480198494201    4.62659350335677
H         4.92133048240848    4.21026280590291    4.22490412683579
H         5.49375973115141    1.81749195074190    3.94970780944725
H         3.93184283281710    1.45506957018815    3.80123615369290
H         6.05772786305684    4.33100007255409    1.89270814747532
H         7.30813846084799    2.15481389711990    0.10541416549962
H         6.22513844296044    2.10871878246749   -1.22303621937097
H         6.68459190654090   -0.09985126290033    0.50059832479470
H         5.67714891918193   -0.06546110009855   -0.94529919820871
H         3.58845755857787   -0.64061936444582    2.40428325359834
H         5.33395817023464   -1.05952795380211    2.33258738170046
H         3.17854917212678   -2.42632836508550    0.85946314140502
H         4.85299573037325   -2.47723722960080    0.33303902051956
