36
 energy: -47.848802291461 gnorm: 0.130257850938 xtb: 6.4.1 (79825abcba525fcdf90b791dcacef51065a7a4e7)
C         1.67461280228862   -0.07042699857092    0.22854452853328
C         3.15437656793880    0.12968629619011   -0.17295581835015
C         3.47495417914582    1.58202049212707   -0.47411873644850
C         4.05794600287414    1.76198017341309    0.99446057178062
N         3.28664454952557    2.41317200695894    2.04591488403066
C         3.97067702207227    3.70625316568694    2.34181678044325
C         4.30588020605941    3.83654534582176    3.86491768934111
N         4.86004064973309    2.66716430637496    4.56503190042772
C         5.26468283702912    3.65554056702605    1.56245646559152
C         5.29606210568479    2.50080243043731    0.91203598704430
C         6.39304776170066    1.76309781088671    0.28243486521095
C         5.81989540889770    0.32893989733843    0.17498035398751
C         4.40889843240937    0.28137782404143    0.93788760599021
C         4.28079583033903   -1.10299634674088    1.57464089830365
C         3.99353578444430   -1.90477078229871    0.29490205911208
O         3.61094897850190   -1.06643552757260   -0.82315648848036
H         1.44482956751758   -1.11932296870038    0.44510406253738
H         0.97213059531433    0.23421045290892   -0.54861847744849
H         1.40762906615171    0.54357393379266    1.10123137369675
H         2.54825353652511    2.08888469125180   -0.76415534430627
H         4.35387798163155    1.83886453431801   -1.08260212664609
H         2.30321438208747    2.60732917700446    1.83998893587784
H         3.37164354511487    4.57442253142861    2.05488896843444
H         3.39269438292018    4.06788749324371    4.42502070002696
H         4.94843493926556    4.71857647474045    3.99318005260091
H         5.83466184854199    2.59253542327723    4.26953664204211
H         4.44230942418589    1.80375410772251    4.21074198805339
H         6.07183497088897    4.36734393963122    1.62065533083923
H         7.32812153933931    1.77048556310036    0.85506712183628
H         6.58308118276150    2.12108125380634   -0.73470545401612
H         6.44544334252619   -0.32980690701108    0.79489707592740
H         5.73628741832025   -0.15284810683817   -0.80433780641002
H         3.40976071297576   -1.13336623318890    2.23494984109577
H         5.13942306237751   -1.53780354848553    2.10466187732815
H         3.25036797712830   -2.70623180503051    0.39952403147959
H         4.82559011003850   -2.44893032910327   -0.15676930976729
