36
 energy: -47.841980468324 gnorm: 0.143700066388 xtb: 6.4.1 (79825abcba525fcdf90b791dcacef51065a7a4e7)
C         1.77506327634770    0.17144511646884    0.37810081305791
C         3.22834625591660    0.12684697738925   -0.14813890937269
C         3.59306104358341    1.52856614283307   -0.60080902043584
C         4.12590285427665    1.84504708496242    0.86374195884690
N         3.26044491463070    2.49988593315411    1.83671758007089
C         3.91584121576136    3.72529573861362    2.38109222633131
C         4.28298505396871    3.52043934295992    3.88854467024979
N         4.77849438426655    2.16256864607510    4.16306861152490
C         5.22820668980881    3.69116894418821    1.63212122244943
C         5.34616395852042    2.61741128895010    0.86362773744361
C         6.33187976040787    1.88099566493614    0.06987738437205
C         5.94728877754784    0.39879956556407    0.29800787882175
C         4.48096249730255    0.36681197445693    0.94921148597814
C         4.28803363550299   -0.96125074202003    1.68227680448954
C         3.84572806135878   -1.90578775864765    0.55298158535572
O         3.59595177419929   -1.16151973062958   -0.66476653713583
H         1.55383874255323   -0.86967329626232    0.63697004016495
H         1.13850442544643    0.44928267703262   -0.46324732106018
H         1.65008739722636    0.77296505318593    1.29046838451682
H         2.65092255803057    1.97841690473799   -0.93219399339970
H         4.43193235288887    1.78368832537502   -1.26408539853330
H         2.25488662701763    2.52834531956527    1.64888785913577
H         3.35268205386358    4.66141432934949    2.34340294955564
H         3.42956460362877    3.78620554005814    4.52272507428838
H         5.10277771670219    4.17207960371083    4.22112803334584
H         5.38413921318149    1.94254020644502    3.37088477840179
H         3.93780386848584    1.59480302581736    4.03508601300329
H         5.94976771402846    4.49003698247335    1.68413349938247
H         7.35811495254748    2.05822821674935    0.41303217150480
H         6.36207001620414    2.13960787822902   -0.99362981324443
H         6.52871659817305    0.05818828543681    1.16719137874671
H         6.07365267913199   -0.27867937634377   -0.55242053765526
H         3.52041625716285   -0.88447237280283    2.45719683359781
H         5.20101624430209   -1.22585903513062    2.23333529865820
H         2.87957468232593   -2.37656770042586    0.77769877384680
H         4.60331491058956   -2.65096354133104    0.30157303289784
