36
 energy: -47.837702654270 gnorm: 0.146429844162 xtb: 6.4.1 (79825abcba525fcdf90b791dcacef51065a7a4e7)
C         1.82727040723669    0.10430840769525    0.49569456806600
C         3.21644636870867    0.15000002739165   -0.18183851236007
C         3.48538317391714    1.57947606361534   -0.61429079370561
C         4.11430305553985    1.80975998550385    0.82807506011530
N         3.38120466605716    2.44258398329844    1.91739294074389
C         4.06743724038107    3.66834426383034    2.42148999953674
C         4.05416689267985    3.65334230004013    3.98634541301289
N         4.56828682455431    2.41209940304487    4.58609743923222
C         5.37901683100329    3.55617511047841    1.67879060153201
C         5.36127456320541    2.53821239560184    0.82973891783143
C         6.36351070660116    1.87101605044081   -0.00354072430745
C         5.93613429948044    0.38338286358969    0.03045813974701
C         4.54544966379969    0.34939763025438    0.83048523543081
C         4.37112746993891   -0.97528802416754    1.57424364029260
C         3.94033233819248   -1.93108923607147    0.44998758479467
O         3.44479515185904   -1.17612300206290   -0.68301835630983
H         1.56597953061941   -0.95941666900273    0.50555146910378
H         1.20712715578586    0.65311713336940   -0.21458628611938
H         1.65975002185834    0.57039080275887    1.47781671460911
H         2.54081115096384    2.03765642170685   -0.92679854151453
H         4.30655256610695    1.73273612895002   -1.32907756974291
H         2.38069993353515    2.52092529257077    1.71716726905923
H         3.52433125477132    4.56577271089388    2.11400861495690
H         2.99060925736103    3.79061222817178    4.21249811220034
H         4.61388969178925    4.47798011070399    4.44893552100812
H         5.52929850830286    2.27116612112973    4.27087092788655
H         4.04404818728348    1.58133477704067    4.30236890948257
H         6.16533665659807    4.27723618064690    1.83149224621042
H         7.34190467117232    2.00022295981673    0.47434636381002
H         6.42804936750416    2.25449734351172   -1.02707193555535
H         6.59248002284254   -0.26481087551339    0.62929825689017
H         5.92789133035869    0.00501507108622   -0.99664648287475
H         3.42078429608849   -0.80457273393680    2.08740690433827
H         5.05447805212868   -1.33204149964299    2.35717352766332
H         3.34541865692185   -2.79106356160559    0.78480961420484
H         4.82426365024397   -2.32496081582587   -0.05593894331688
