36
 energy: -47.844274224209 gnorm: 0.133095868088 xtb: 6.4.1 (79825abcba525fcdf90b791dcacef51065a7a4e7)
C         1.78086895384617    0.24303832086660    0.54871826651121
C         3.13366742530244    0.22890730995613   -0.20007093414568
C         3.42117286082957    1.68337060286724   -0.52352244257626
C         4.06640420223942    1.83077136602811    0.92248574213503
N         3.24509267454814    2.46655776899238    1.94509805140709
C         3.98888135943210    3.62900863611555    2.51343212917693
C         4.32480205753874    3.50397338968488    4.03681556082331
N         4.75802050164601    2.16415634155312    4.46333376449725
C         5.25068389856409    3.63474048014072    1.68141841621496
C         5.31961394748183    2.54843710859691    0.92468513698113
C         6.39157493281039    1.77186033328960    0.29873676525535
C         5.80885157853656    0.38385142444325   -0.06282066141958
C         4.46694639881998    0.36550731708203    0.81704073742374
C         4.35794013489074   -1.03300924280900    1.42583129988666
C         4.06871563941558   -1.85372193757819    0.15860127310388
O         3.44676300139745   -1.01487143540664   -0.84575838939054
H         1.97020079072369    0.64580574615706    1.54962434495680
H         1.29741654137520   -0.72984335382909    0.64893092342421
H         0.97529443148068    0.74687890387996   -0.00540639942802
H         2.53410967944567    2.28471402078561   -0.75004316202737
H         4.16598175435598    1.88760826881395   -1.30600224679398
H         2.32317300190186    2.62072556440552    1.52852416568368
H         3.34838912247654    4.51009301023402    2.60479266622554
H         3.38708419470793    3.76053420655518    4.54278460536360
H         5.06712781429304    4.26202409184959    4.32250479051611
H         5.63716369041724    1.88975512141466    4.02221629338171
H         4.02769613586264    1.52864150324482    4.13432753339239
H         6.08903329528661    4.24567660033268    1.97377618129999
H         7.22025426117825    1.61490736353226    0.99943754366542
H         6.86101067778325    2.25210045922110   -0.56603995822616
H         6.50052791489558   -0.42972637403250    0.20029401599452
H         5.49524664847212    0.35685458982321   -1.11119900427517
H         3.61755549457604   -1.24443544408282    2.20220876174710
H         5.31028278013607   -1.37511887325605    1.85387889646788
H         3.35435550911039   -2.63087884160272    0.46076127537096
H         4.93210837765679   -2.33480803470617   -0.30566178351600
