36
 energy: -47.844133322490 gnorm: 0.134352865067 xtb: 6.4.1 (79825abcba525fcdf90b791dcacef51065a7a4e7)
C         1.67098649615991    0.02277040379849    0.53452560545634
C         3.12859520824982    0.10068402205535    0.02437369834351
C         3.41646048699276    1.48860860346292   -0.51742207460898
C         4.16788973611031    1.80463684966426    0.84803403763488
N         3.40158833133913    2.43964334348563    1.91295741970397
C         4.05806554679699    3.74839025467874    2.20232989990315
C         4.11160267156888    3.92429280789616    3.75647457870351
N         4.35680358368826    2.66063616406001    4.46904325651982
C         5.40710737502956    3.62688624879282    1.53169717154967
C         5.42691984206999    2.51130937432292    0.81577305134218
C         6.41213266823909    1.67371562018828    0.12891381328922
C         5.83523090505251    0.23897559807998    0.05431862789901
C         4.51104806925894    0.32511601064808    0.95671639438829
C         4.49320257680867   -1.03951307784127    1.64651771086039
C         4.11729448704112   -1.90981379370258    0.43640951557913
O         3.45750629828037   -1.14771146651409   -0.60431771424308
H         1.59716793168756   -0.90636836915266    1.10996724529611
H         1.02083734639452   -0.03457462146362   -0.33970845629647
H         1.26562275403098    0.83289953725166    1.15840925999482
H         2.53385519669888    2.09351000883790   -0.75174840518191
H         4.09981296362952    1.59440904125262   -1.37215221884379
H         2.38599388108013    2.53846972910388    1.83524860588175
H         3.46225451943293    4.58732184015656    1.83342646478036
H         3.17785061882948    4.37245175171504    4.11480904127387
H         4.94723477224555    4.58708423107827    4.02054512726789
H         5.37198455446268    2.56273521125703    4.51999812801079
H         3.95390644040989    1.84910143180866    3.99514119851635
H         6.28866588712627    4.22983052208145    1.67612195969012
H         7.34981126390224    1.61925866357585    0.69470400322772
H         6.62301826858457    2.08409286922352   -0.86403989045744
H         6.45576874294537   -0.52255243455177    0.54885089540196
H         5.76326509741299   -0.09540592961118   -0.98548132993813
H         3.72240763121262   -1.18903445734472    2.40753736659719
H         5.44698310367822   -1.10318987423632    2.18824478146830
H         3.37407134652010   -2.66039119606465    0.73613746194609
H         4.95721440394940   -2.42790720843866   -0.03107822262696
