36
 energy: -47.844386560062 gnorm: 0.141179512254 xtb: 6.4.1 (79825abcba525fcdf90b791dcacef51065a7a4e7)
C         1.70747597742895   -0.12510550392395    0.40868478993798
C         3.11792673377911    0.18988431186643   -0.14118671921014
C         3.40808361353924    1.65906432804765   -0.38626370664385
C         4.12902313601280    1.74259978330242    1.02874793965457
N         3.36103104256178    2.31764867005518    2.12602617533721
C         3.92722706938762    3.68480225297672    2.32052619577406
C         4.04663017997449    3.89987534134313    3.86605522176687
N         4.98506151387769    2.98719639803640    4.53767227311399
C         5.26869601152834    3.54515545613884    1.63833486490840
C         5.41158166480895    2.40446497706292    0.97813769608384
C         6.46829243352369    1.62276219108283    0.33293536484897
C         5.88001720973231    0.19382210998818    0.23848225436646
C         4.42606866901327    0.25351423699152    0.91499715416638
C         4.18296717898143   -1.17803381074612    1.39450569385086
C         4.07589121309545   -1.83837454888830    0.01046203638055
O         3.57782824029085   -0.89143739380389   -0.96651127377749
H         1.61284287543052   -1.21623494367740    0.38965242599682
H         0.94074666006128    0.25539969921379   -0.26778360927801
H         1.50449520201473    0.21137536074794    1.43603049953689
H         2.56567660554047    2.31450551022645   -0.63234063111183
H         4.17468335521885    1.87018578175620   -1.14552681612022
H         2.34559661904969    2.19292151016091    2.10208072679835
H         3.22487033299053    4.44797407705862    1.97534445180310
H         3.08493468755978    3.96920451258846    4.38709086293616
H         4.45911596189152    4.91196818000934    3.97932602436534
H         5.88043047556874    2.95419664338204    4.04777551658438
H         4.56712097786140    2.05401803651876    4.53635383227488
H         6.01729060423056    4.31614702554277    1.72033325270419
H         7.43874459235841    1.70702592302456    0.83637095793935
H         6.70035882473328    2.00732563475277   -0.66561125161508
H         6.55005906007551   -0.40714007551769    0.87049699832818
H         5.78403543617405   -0.20439385013193   -0.77659681865088
H         3.29462485022779   -1.21850242916231    2.03077806786566
H         5.02484099092690   -1.56418096636442    1.98557171259531
H         3.29664316742185   -2.60935619875645    0.07326072818732
H         4.91327004202100   -2.33595673535718   -0.48313666627803
