36
 energy: -47.844968284554 gnorm: 0.134962648330 xtb: 6.4.1 (79825abcba525fcdf90b791dcacef51065a7a4e7)
C         1.91536775565079   -0.20599297647861    0.86134584732597
C         3.14107353417815    0.04168542181019   -0.04818668004462
C         3.33111935137367    1.49690960588696   -0.43412565874680
C         4.17396580866414    1.77694142092291    0.88503399196800
N         3.40156046420472    2.35197195639752    1.97921989342074
C         4.06727729413404    3.63114713016310    2.36399154798481
C         4.52522051302674    3.71341731277201    3.85821149031343
N         3.73863596626324    2.81428044129790    4.71701493463106
C         5.29609518273832    3.67985187550959    1.48532222907014
C         5.37523192782300    2.56954026620122    0.76532420730955
C         6.43902696491002    1.85885493452253    0.05310955905211
C         5.82258677957927    0.46871664631643   -0.23736600983166
C         4.58449884281485    0.31501603861052    0.77194885403165
C         4.65643964331150   -1.05542699430281    1.44653562633207
C         4.15090471484134   -1.95762360510059    0.30918440762067
O         3.49766591471749   -1.17575084840834   -0.72095521594274
H         1.74851901886240   -1.28859490304853    0.85738484764108
H         1.05783617501737    0.05213114676097    0.23822540238295
H         1.95690503390602    0.31124125078011    1.83119284550854
H         2.44400638597461    2.13904881584326   -0.45636195918627
H         3.89834001991785    1.70667591243226   -1.35226876948748
H         2.40195492181212    2.52129462378133    1.84009406005328
H         3.39350099546887    4.46769186412490    2.16124753714737
H         4.51140936551292    4.73443470976344    4.25630149203336
H         5.55951364939255    3.34396986702813    3.82576118457485
H         3.54903120378549    2.09712446800281    4.01522383948691
H         2.83510698772272    3.22973175013813    4.95478264561206
H         5.99467072045055    4.48368591362750    1.65081780953898
H         7.27571261941635    1.83139698065327    0.76129627339133
H         6.78802763352665    2.32982465975079   -0.87167438168621
H         6.58047314982483   -0.30792042979067   -0.05848777093651
H         5.57256130205063    0.45467967779622   -1.30294766522766
H         3.99216926026772   -1.08948742903398    2.31441647007095
H         5.63837000769437   -1.38235334816722    1.81552368116295
H         3.52919967520047   -2.76374410924821    0.72056804343726
H         4.90575098507685   -2.42839622992681   -0.32407011049238
