36
 energy: -47.840923716048 gnorm: 0.142341595332 xtb: 6.4.1 (79825abcba525fcdf90b791dcacef51065a7a4e7)
C         1.77662592452739    0.08439360193698    0.47131285085950
C         3.21952387313825    0.04496607166992   -0.08315954555582
C         3.45725887243442    1.45076212797098   -0.60273942432039
C         4.15008814650619    1.84346254094068    0.77376490086751
N         3.30937318591633    2.53027277792101    1.74639173873504
C         4.00798174236276    3.75540549164100    2.23476984116576
C         3.97720310780074    3.61534080034201    3.79316907692454
N         4.60592942205171    2.43978141733856    4.41563922513596
C         5.38095721129366    3.58860144261875    1.62522893822758
C         5.40043572676298    2.56606277582125    0.78173210212314
C         6.45468003510152    1.83037382241746    0.08079420882246
C         5.92960768467180    0.37413117164860    0.05809204913469
C         4.55428967934493    0.37962739258155    0.88493682292901
C         4.38358562657313   -0.89291069458363    1.71551723257542
C         3.86662279678640   -1.93486186824829    0.71044048440845
O         3.50745172728643   -1.28730463154482   -0.53491061054893
H         1.36535376746795   -0.91316743593806    0.66001449627515
H         1.12503007399434    0.58704545840775   -0.24494933745506
H         1.97600672299807    0.67835084398945    1.37537141042436
H         2.56066798035291    1.92702189256210   -1.01396692483128
H         4.25711897080189    1.43420769045848   -1.35684666700406
H         2.36244391859022    2.72353856216926    1.40992376229469
H         3.49828426469844    4.70373532478428    2.04565150873471
H         2.91188324534471    3.60397678885007    4.05028261417764
H         4.36984258151742    4.49380404833558    4.32368137915703
H         5.62541963067913    2.47246139501221    4.36721263614815
H         4.31943717693279    1.60074650156197    3.90628620951958
H         6.16245911555382    4.30581547989819    1.81602865354377
H         7.42618406318459    1.86806727621683    0.58782910038512
H         6.62755637404826    2.25612605226954   -0.91303077225703
H         6.59077016513064   -0.29596614903257    0.62676425221478
H         5.92750407305616    0.05740208944687   -0.98969242481954
H         3.76084527071426   -0.79156693485035    2.60857731138711
H         5.40660726120936   -1.14287589256568    2.02882918832439
H         2.88857302166065   -2.28562219999095    1.06536265210638
H         4.48007186673651   -2.82539665656569    0.55858834468412
