36
 energy: -47.836802445806 gnorm: 0.125100155786 xtb: 6.4.1 (79825abcba525fcdf90b791dcacef51065a7a4e7)
C         1.69988015129282    0.12535414549763    0.65717463205833
C         3.08419283935137    0.22635007557915   -0.02431407352485
C         3.47502645891069    1.58835634609143   -0.56739023758861
C         4.13339147056563    1.86202954402520    0.85410497875991
N         3.26075314595889    2.46479411772564    1.85395002811045
C         3.97613759792662    3.66252674531197    2.38421305673937
C         4.11755769935468    3.56701184267336    3.93986432258817
N         4.60545429902911    2.21156019508035    4.23888514751336
C         5.35902368117299    3.53340516172979    1.78807631137936
C         5.39418513324481    2.56571110410421    0.88265733876170
C         6.44028449131508    1.84921362877025    0.15033861218252
C         5.87113074175167    0.40955044002065    0.16745352073294
C         4.46045561358729    0.37691898890205    0.93173943275046
C         4.39381551090499   -1.02958822281776    1.52810629485902
C         4.12049696910083   -1.82358548244904    0.24048934728597
O         3.40567290595411   -0.99443899449054   -0.70860297696223
H         1.76311853535837   -0.11082222525525    1.72493057311639
H         1.17631777664159   -0.65584755322926    0.10411594809843
H         1.15246543195150    1.07912995306677    0.63462196834360
H         2.71309975286785    2.21397086776361   -1.04475886400286
H         4.31478818095259    1.39234815750553   -1.24937923516982
H         2.34910374838534    2.69075743917598    1.44765783658875
H         3.41841955096608    4.58208732322313    2.18864810376573
H         3.20353163909187    3.85835881104273    4.46978528400840
H         4.91326163092153    4.26990272710064    4.22289503956264
H         5.34348329425424    2.05273133490834    3.55123698659349
H         3.87249590158994    1.55464307505735    3.96188375125897
H         6.10096826801517    4.30521637974386    1.91205774026937
H         7.36158583793925    1.78078284903849    0.74097073355428
H         6.70155809857507    2.28887333854727   -0.81779088544652
H         6.66917501525334   -0.18714059191645    0.63289897013231
H         5.76182425948240    0.05321594229561   -0.86174609508594
H         3.62614229754366   -1.13218776295332    2.29997647959897
H         5.30869737568196   -1.32562741151375    2.05968152903037
H         3.55786215680985   -2.70985931901502    0.56227292403481
H         5.01311181502729   -2.31006332606120   -0.15827008404461
