36
 energy: -47.836984965436 gnorm: 0.152312730962 xtb: 6.4.1 (79825abcba525fcdf90b791dcacef51065a7a4e7)
C         1.79815207719717   -0.02971853062911    0.56798091332918
C         3.15712859647486    0.13188515976520   -0.15175217681472
C         3.34325279893568    1.62757127590903   -0.32789004096792
C         4.19521965775907    1.73131634143160    1.01090775944831
N         3.38928830289034    2.39266648974603    2.02953600827825
C         3.98116645210064    3.75095403006387    2.20912565583895
C         4.05021622892114    3.91584698755097    3.76386551878071
N         4.81954028993223    2.88741712855867    4.48162469274321
C         5.30919657744042    3.65014656933938    1.49456344332127
C         5.43402568358767    2.46672082594066    0.91029225767942
C         6.51817193496100    1.60886326304883    0.42791221852508
C         5.81390748283222    0.29070947253621    0.02375733688473
C         4.46856307496195    0.23771486596148    0.89693663137008
C         4.37464671953246   -1.18723384735484    1.44379835579281
C         3.90617164699432   -1.96392531832247    0.20268049637727
O         3.49385887456826   -1.07051086295040   -0.86082426038349
H         1.48925779091802   -1.03141052271013    0.88590951341432
H         1.12184861409247    0.29739855129059   -0.22314208750189
H         1.61272680211041    0.60736879347993    1.44524769036082
H         2.38831394058492    2.16372921735271   -0.34870023487189
H         4.00117591702966    1.97926198318510   -1.13546589875448
H         2.40681697071160    2.29373492114304    1.76083541137985
H         3.32799694783093    4.52714000126579    1.80195043802505
H         3.04107573309521    3.66675323077242    4.11132871919128
H         4.36610144578436    4.90254275464244    4.12986377663716
H         5.78123827852902    2.93214978522283    4.14117004570268
H         4.34719497959465    2.02152253164013    4.21215420606420
H         6.02212950262807    4.45823469696264    1.51087095745758
H         7.13017133570695    1.38828322970640    1.31059359642746
H         7.20562903359137    1.98508817051633   -0.33674249874284
H         6.37320080774208   -0.59074584709716    0.36985242428491
H         5.89644452827655    0.30611272681184   -1.06762912538315
H         3.70914459324706   -1.30876887072268    2.30284932534622
H         5.38534705010204   -1.45726091876148    1.77964127633273
H         3.03040411227973   -2.57219626746988    0.46463773160805
H         4.66006325987546   -2.63921508262072   -0.20727341456211
