36
 energy: -47.842563169634 gnorm: 0.131330002892 xtb: 6.4.1 (79825abcba525fcdf90b791dcacef51065a7a4e7)
C         1.72833971785922    0.04104435076028    0.51926790106466
C         3.15120653281385    0.20033472359535   -0.06470568813150
C         3.47886758342565    1.57829469554711   -0.60932309453029
C         4.09253251829474    1.91565939832330    0.81846906268360
N         3.21191966011549    2.54306352359126    1.79591366059820
C         3.95506607744043    3.72864065106956    2.31519921063640
C         4.24752299771437    3.46997449262162    3.83069726763571
N         4.60014747890518    2.07211860044814    4.12456899651284
C         5.31223362816810    3.68336963583734    1.65151850368240
C         5.37716881061067    2.56302744936472    0.94577889456840
C         6.38107634771117    1.82529665108895    0.17642455776152
C         5.84320129076775    0.37357875620000    0.18445931894594
C         4.44967462656706    0.44398447622213    0.97713106234151
C         4.33556025913718   -0.87800482500512    1.73718308462084
C         4.15306756649910   -1.78261318995849    0.50776364713382
O         3.56554846641090   -1.06402325053120   -0.60474852953996
H         1.48911887715266   -0.95794685499268    0.89962436205211
H         1.00261558217233    0.37794830102952   -0.22241109616478
H         1.60727587088778    0.70883664267877    1.38486408291045
H         2.59777850614744    2.20605895141702   -0.78078933471655
H         4.25557138985849    1.60904412279846   -1.38682781643311
H         2.30367977763150    2.75302985486905    1.37371486282322
H         3.49156689116980    4.71111223595014    2.19352419197416
H         3.38487798852004    3.72097217211330    4.45838084174204
H         5.13790750549374    4.02671050901805    4.15406573204550
H         5.16555251075778    1.75140914453887    3.33701836766979
H         3.78645508646097    1.45497090656741    4.07425693614695
H         6.15060875839626    4.32717516647178    1.86172623513081
H         7.38257688246392    1.86476264972767    0.62113159670468
H         6.42147789695836    2.24602978916312   -0.83362029433984
H         6.57335628713765   -0.39527056580663    0.47651873192584
H         5.78276720954509    0.11756744562143   -0.87807535857612
H         3.45638701989057   -0.93067362181637    2.38518985021055
H         5.14096226872983   -1.33498080791604    2.32855500398716
H         3.64284833500815   -2.72790462049696    0.73510555665320
H         5.15796431115885   -2.09451761519177    0.21565205600714
