36
 energy: -47.843960822950 gnorm: 0.125020930382 xtb: 6.4.1 (79825abcba525fcdf90b791dcacef51065a7a4e7)
C         1.82237148562430   -0.06581789109621    0.49929307335632
C         3.21633480267576    0.10289047052461   -0.14828117330700
C         3.47230386538064    1.58340133971293   -0.36114525715029
C         4.12466409313453    1.60800345166838    1.08896197350728
N         3.38071709496970    2.31151371000011    2.12632837718010
C         3.88300526617573    3.71577268203638    2.18360456418238
C         4.00493838655557    4.27070494010493    3.64180760228050
N         4.77128379123656    3.34953942947686    4.49554909535491
C         5.23363931020956    3.55550217492805    1.52441844322730
C         5.36984579186526    2.33641419055720    1.02170195421927
C         6.43348916984326    1.62827742117474    0.30672765452303
C         5.89180037642264    0.18044907720770    0.22172568555021
C         4.47308691545338    0.13050280492426    0.97003014668841
C         4.37816354739239   -1.31684979107388    1.45429957126806
C         3.87566304506679   -1.99260140582742    0.16824161422963
O         3.61010556929970   -1.05365547736975   -0.90278282325308
H         1.39173769942801   -1.04615712361531    0.26827218619805
H         1.12967149003218    0.71936947322569    0.19283739827261
H         1.84760633897798   -0.19173787453928    1.59170652395189
H         2.57970683357347    2.20631879689595   -0.48382778131438
H         4.25102634985715    1.79283531374448   -1.10844482799380
H         2.37611308342762    2.14583896521201    2.02356628523093
H         3.23011228053761    4.41199109701676    1.65078434735084
H         3.00777099703834    4.19951748281385    4.09095396952631
H         4.41268041556938    5.28762175188854    3.72507444095872
H         5.75208504420762    3.26415770761713    4.22441764687185
H         4.43849561926204    2.39469944864140    4.34379095843936
H         6.04312419075791    4.25590412727621    1.64978603245086
H         7.35937486397848    1.53194944594714    0.88619451090848
H         6.65994411332318    2.17084690782710   -0.61694749196995
H         6.61671989454065   -0.57069013557201    0.56789889463839
H         5.75429333138731   -0.11553436455586   -0.82309948754358
H         3.73313329649238   -1.49847710921702    2.31834812502686
H         5.35886188243083   -1.74772000782485    1.69884379922886
H         3.00737638739505   -2.55835533916267    0.53098764141620
H         4.59246653177104   -2.64017495151691   -0.34094626910339
