36
 energy: -47.840744534247 gnorm: 0.125161745672 xtb: 6.4.1 (79825abcba525fcdf90b791dcacef51065a7a4e7)
C         1.69598690184648    0.11083095440604    0.38760090144238
C         3.13420988917522    0.12437166978475   -0.18009615777732
C         3.44640239187224    1.59582491478356   -0.38035827570272
C         4.10149499585771    1.66593659753804    1.06702839126155
N         3.37635775350967    2.35033626694802    2.13017747408972
C         3.97680581814224    3.70094040328750    2.33717462818365
C         4.17452532362403    3.95393606208712    3.86886447683207
N         4.85057640109653    2.77643976035556    4.43557702605143
C         5.28032588737511    3.57537221937012    1.58252678539918
C         5.33995903680483    2.40215298630056    0.96815545786573
C         6.39683344030198    1.74586575992612    0.19595939193425
C         5.90948483596314    0.27875519397348    0.27924761326910
C         4.42911926801055    0.18923504616540    0.89219624358387
C         4.31922936879988   -1.20872008290379    1.50211635350780
C         4.04185932983246   -1.94980826442580    0.18418379143244
O         3.48718584367702   -1.09705961074080   -0.84750930072089
H         1.28238435146419   -0.90243475101947    0.43349930773936
H         1.07575807411056    0.74008175939007   -0.25242034054109
H         1.77808473812323    0.62387752138243    1.35708682415927
H         2.52819676033441    2.17489031556525   -0.52660569982799
H         4.21216007933068    1.83790891633897   -1.13118345852686
H         2.38057416576324    2.46872092850253    1.92612476592313
H         3.30696838829627    4.41360291242259    1.84899773015775
H         3.21001027217309    4.10950983917103    4.36550361464895
H         4.71213109238955    4.90761298610526    3.96260395917484
H         5.56967658000559    2.65469183939050    3.72084226863713
H         4.21661823790798    2.00810917983962    4.20478912728316
H         6.10843891479397    4.21862127195868    1.83153517632115
H         7.43994965318599    1.89051738469607    0.50142579350786
H         6.28996302418431    2.02051848174732   -0.85854706441670
H         6.57764761921858   -0.21088306311561    1.00268882424252
H         5.92010116848259   -0.17481871601875   -0.71691102457842
H         3.50830030625669   -1.36835394043691    2.21803778671222
H         5.22859895682100   -1.51523802337331    2.03719948494016
H         3.28352916447686   -2.74250262074753    0.23060505212891
H         4.94150676461109   -2.44308782315498   -0.18963542617276
