36
 energy: -47.844790226439 gnorm: 0.138832036865 xtb: 6.4.1 (79825abcba525fcdf90b791dcacef51065a7a4e7)
C         1.85467931712280   -0.04525676397421    0.65535438487565
C         3.20032631049213    0.07886275686467   -0.09616219013427
C         3.39156499387244    1.51419715470453   -0.55001970996133
C         4.06299937400605    1.80811025216973    0.86128503618729
N         3.25448789745953    2.57285120656960    1.80255723272122
C         4.00817496724581    3.81782076589561    2.13350107124761
C         4.17587475253581    3.77973510180826    3.68900737150582
N         4.51442701044348    2.40710546548526    4.09640884512755
C         5.38249156963067    3.63014215298631    1.53312126488839
C         5.32412632320766    2.51084550968463    0.82515224987424
C         6.43763634779720    1.77834291318468    0.21891916391518
C         5.88293899180868    0.33296140021935    0.21242854186964
C         4.47066672310138    0.34538215439297    0.97435692492101
C         4.29358422334195   -0.94661535969410    1.77294384982134
C         4.04924335676166   -1.89552652498496    0.58847890163704
O         3.65063283409183   -1.18440677001116   -0.60929065977427
H         1.74576830090618   -1.05322115165583    1.07011612771054
H         0.97520982114048    0.24044556652939    0.07641125562217
H         1.99428080984015    0.65299809609843    1.49369283675540
H         2.45711265621504    2.07555551665202   -0.65717492542176
H         4.08521528676203    1.66219777872364   -1.39006318372996
H         2.34794362196402    2.77857324237604    1.37466319402074
H         3.52381835960023    4.75876269580127    1.85979743837401
H         3.23529458423893    4.07990221635623    4.16477156224224
H         5.01373525265501    4.37958051389496    4.07042838675564
H         5.23486923545042    2.09325350423944    3.44430966218289
H         3.71458992277961    1.77037056299155    4.11449711274547
H         6.18355795462621    4.27486313537406    1.85588001571591
H         7.39267981018074    1.73196248393163    0.75563704599640
H         6.56415673399626    2.14901483192759   -0.80354559644979
H         6.66803037062740   -0.32933989840575    0.60554790927813
H         5.72101035477170    0.01935212374036   -0.82371930924528
H         3.50263002844417   -0.98211248164467    2.52710817434376
H         5.21621865086534   -1.18430419552922    2.32018235312383
H         3.19580154923183   -2.58306165831065    0.65568334936181
H         4.88376081056080   -2.53429044698866    0.29184392513258
