36
 energy: -47.851546921632 gnorm: 0.126673109692 xtb: 6.4.1 (79825abcba525fcdf90b791dcacef51065a7a4e7)
C         1.79277993203650   -0.03941922373954    0.49146458904471
C         3.14260993220984    0.17922717654786   -0.23040893101870
C         3.41366051381120    1.60748508428981   -0.66555794117558
C         4.09662947118512    1.88080152084575    0.74435045215032
N         3.30763687743815    2.43613828173691    1.83687260079669
C         4.04008249190989    3.61525110791300    2.38526443789667
C         4.12378700606897    3.62530869610550    3.94797555074951
N         4.81987947252446    2.52224666913101    4.62872159224272
C         5.37574324442695    3.54878310496854    1.68097920155837
C         5.38354412900910    2.53014631003696    0.83258668165778
C         6.39225258508406    1.78774796213784    0.07407816801132
C         5.86644920055139    0.33565471585704    0.18277507713454
C         4.41030870700101    0.39486699890822    0.85460158507394
C         4.18063248412286   -0.89891101350802    1.63674232427034
C         3.99061274245834   -1.82493598793248    0.42452851996420
O         3.53172163699504   -1.10354876926692   -0.74519495586105
H         1.63168025585101   -1.10987650992929    0.65894358545118
H         0.94768646022578    0.31924761289249   -0.09797810423235
H         1.67607877210249    0.51163633488304    1.43622826333589
H         2.58989750678964    2.29082909713972   -0.89850021581769
H         4.19406845741549    1.63174949508729   -1.43957514623727
H         2.36085608523163    2.60415142339039    1.48670820504148
H         3.47467233098249    4.51975428408608    2.14636679551698
H         3.12157056919966    3.65614242237884    4.39041698129051
H         4.64407902067420    4.57283092358275    4.14496433365906
H         5.76402988625458    2.57091103383780    4.24273561371196
H         4.50876050286117    1.58312566040846    4.37035245669948
H         6.16079439441805    4.22303731220373    1.98201355886688
H         7.43880831051513    1.81339032329072    0.40025119175848
H         6.38336237467497    2.08522456730069   -0.97961434447729
H         6.58159024004979   -0.27804770256258    0.74978209169854
H         5.83090639108631   -0.11990632833462   -0.81189817339146
H         3.26760954196922   -0.97941617371390    2.23301443688182
H         5.00232256813451   -1.32772296910081    2.22679822514666
H         3.31759862548892   -2.67804933365727    0.58211510685170
H         4.95575022806909   -2.23549523866579    0.12058482466023
