36
 energy: -47.842830275710 gnorm: 0.146331078692 xtb: 6.4.1 (79825abcba525fcdf90b791dcacef51065a7a4e7)
C         1.77086804976925    0.05955003165965    0.42909980844364
C         3.18455167189657    0.06431442864282   -0.19733820664054
C         3.42848687361405    1.51300063108725   -0.57753243349848
C         4.09196001904032    1.86347881384151    0.82459401760723
N         3.26432493568819    2.45313737974739    1.86950350474451
C         3.97093436524244    3.70856359434854    2.25953602319146
C         4.08053920859892    3.67372468921025    3.82028796688087
N         4.90540122515533    2.58844922091915    4.37389932071173
C         5.35406487193139    3.58757793692310    1.66226071707361
C         5.35758556545707    2.55901738820169    0.82589809463072
C         6.43701271547518    1.75852324544243    0.24449516178820
C         5.84563590674273    0.33399724008113    0.11086076519004
C         4.43776064896002    0.38160248246920    0.87951094705494
C         4.25553847885837   -0.91174785598177    1.67474477903977
C         3.98470362553745   -1.93403301823309    0.55909536871146
O         3.50488986809187   -1.26573584174937   -0.63354507348777
H         1.48877800958430    0.81727312415299    1.16812758284096
H         1.59499427094484   -0.90531148635490    0.90698915948627
H         0.97298220802094    0.08551361323224   -0.32757969308843
H         2.54456109582072    2.05720598007865   -0.92727862599479
H         4.22338024700107    1.66300018711783   -1.32209446450418
H         2.44699212209634    2.79311701304093    1.35606577869556
H         3.47370323722314    4.63805071509515    1.97022369493334
H         3.08216025907834    3.42674872607861    4.19895043282597
H         4.34854649526844    4.67056560781636    4.19683412424879
H         5.85660247618751    2.60829535926279    4.00296036324794
H         4.57654119480918    1.72470758490891    3.93652150247795
H         6.23280454390607    4.09543794882083    2.02480798180139
H         7.26497952379889    1.82517698728671    0.96028387888524
H         6.82228976516841    2.19747402667112   -0.68163824571690
H         6.52246750505027   -0.39819399153645    0.57491821008720
H         5.77294761654342    0.08983309891297   -0.95369281385304
H         3.43983789204935   -0.65188649502206    2.35499254644795
H         5.10581958262087   -1.32333267877763    2.23585104251155
H         3.25429087766093   -2.63661829937074    0.98153478138532
H         4.81533829061771   -2.51262466877209    0.14957272542190
