36
 energy: -47.839706681029 gnorm: 0.139719367193 xtb: 6.4.1 (79825abcba525fcdf90b791dcacef51065a7a4e7)
C         1.81829025202271    0.00957355328459    0.43062014426217
C         3.21620890792258    0.11991434648850   -0.22099093055993
C         3.53119102518063    1.56728445064415   -0.55061157137926
C         4.15338336302416    1.69416447729751    0.90738989761802
N         3.44125252336049    2.26114965340493    2.04577048315130
C         3.93423387322312    3.65100236660303    2.27554442390505
C         3.98049083966444    3.92647440681967    3.81539800822787
N         4.88649619155490    3.04794712845726    4.57173777715294
C         5.28632040659881    3.54349543174256    1.60866393265142
C         5.34959115823672    2.49594446208473    0.79867294634382
C         6.42205386597774    1.73752389702165    0.15167589416150
C         5.92802996133685    0.27699420647748    0.29186296876347
C         4.45225885827253    0.20114050757278    0.91760090385044
C         4.14926562796910   -1.13401012989416    1.59872111703427
C         3.92613718181594   -1.95142859647616    0.31609380778770
O         3.54526921858576   -1.14141689437958   -0.82322801387137
H         1.62217255151837   -0.63368135617406    1.29528313691380
H         1.19277548399619   -0.31450955533928   -0.40242785875034
H         1.42590151928525    0.98112863144676    0.76524172226765
H         2.58926740964598    2.08417848986449   -0.76370094795832
H         4.30415920038512    1.88914308817527   -1.26311081324358
H         2.43328964976853    2.16416019043374    1.89798252641777
H         3.33171329942179    4.48491506863076    1.90615940631455
H         2.97476921505778    3.92579211273301    4.25090514978774
H         4.35191161408576    4.93864790861481    4.02719541974092
H         5.71201254527609    3.00186058358174    3.97242802542602
H         4.45372381706344    2.13063463361132    4.44234014483076
H         6.08234376373403    4.25436872134956    1.75883616192161
H         7.36524562909566    1.89696532796276    0.68767306782026
H         6.54578822901583    1.92421674021299   -0.92008661122999
H         6.67408364534211   -0.14748539357995    0.97944953512467
H         5.96467665202026   -0.26281444195334   -0.65968192020264
H         3.30509203137164   -1.23385869106228    2.28649551077133
H         5.07226900829373   -1.53491161408314    2.03981408680515
H         3.09389834595721   -2.63779956494553    0.52068444223110
H         4.78676856191177   -2.52062675083381   -0.04133887817165
