36
 energy: -47.842896602055 gnorm: 0.137624267687 xtb: 6.4.1 (79825abcba525fcdf90b791dcacef51065a7a4e7)
C         1.73655659280102    0.10191570577849    0.37666777449726
C         3.18119260333675    0.12726029168452   -0.17408907348240
C         3.51733971575224    1.57470883962765   -0.48172773305527
C         4.16937334110799    1.70980212061838    0.96243018192714
N         3.32445851046289    2.42499401229520    1.91065609193355
C         3.98563022405894    3.69832115189874    2.32176094438981
C         3.94286965956607    3.71216876737525    3.88609894428179
N         4.95982756611672    2.79180840804495    4.41848897218181
C         5.35428367187724    3.58326902503227    1.69090750332775
C         5.40600214528333    2.45487786774002    0.99699812632429
C         6.38931000593048    1.77588097702802    0.15079952254513
C         5.91568857092333    0.30262891285252    0.10530114605726
C         4.50275173661035    0.22743952567473    0.86237323496192
C         4.33880427538364   -1.13408057283839    1.53893890701453
C         3.81293231582736   -1.98521901354076    0.37184246198191
O         3.45814477311795   -1.15388223504477   -0.76051725949776
H         1.24435817104197   -0.87397034241300    0.44925053524292
H         1.16747936426188    0.69982231075230   -0.33672297591653
H         1.67509454278806    0.48050872769572    1.40756521328581
H         2.62167375965036    2.18623752619462   -0.63542153598127
H         4.27003974801627    1.93193867135319   -1.19905433864697
H         2.31028025564302    2.44304651476816    1.77517924686703
H         3.41228271830952    4.54264373050886    1.93025264947333
H         2.93058397185837    3.39023814387922    4.15587899592707
H         4.09547080937552    4.70275601401043    4.33638388350948
H         5.88422273752089    3.17659251810953    4.21796926193380
H         4.95178397125695    1.87305768609665    3.96979052030273
H         6.10527814281828    4.22701001152958    2.11886844383645
H         7.44595381238760    1.83497195248824    0.43774441653922
H         6.42828187216190    2.13968783547079   -0.88117191054574
H         6.60438491153850   -0.26901191788658    0.74442431451446
H         5.88461299932725   -0.04082419559075   -0.93356761610606
H         3.59212942288476   -1.01919580243701    2.32945174918775
H         5.27924007748541   -1.47354258008968    1.99453335273546
H         2.95319549011797   -2.54479626055339    0.76339042917627
H         4.61007110385720   -2.67653188831138    0.09061782176144
