36
 energy: -47.842773151968 gnorm: 0.135534222169 xtb: 6.4.1 (79825abcba525fcdf90b791dcacef51065a7a4e7)
C         1.84320020489491    0.07001592676180    0.56011550959750
C         3.22967393270446    0.09910759545360   -0.12383838210744
C         3.54103732396317    1.51589527122233   -0.56938214156097
C         4.09110599152750    1.82184990100128    0.89103093478475
N         3.17828806487321    2.57490410008534    1.74202194519968
C         3.92893407143510    3.75635625995326    2.25992020209734
C         4.19089576595828    3.71237040447616    3.80219609187659
N         4.90288248923517    2.47470357876219    4.15710657717064
C         5.25792403913421    3.65289029684978    1.54752580112740
C         5.33387686314114    2.55310465001540    0.81121450275398
C         6.31792124251364    1.71892521356980    0.11854969486121
C         5.87848290109549    0.25556007440356    0.36818027656803
C         4.42254771220599    0.34290423384234    1.03737816407300
C         4.16502315996777   -0.99254926088424    1.73637883275984
C         4.12314036475127   -1.90860911155626    0.50261538255685
O         3.55112625964993   -1.20633160105897   -0.62824258295779
H         1.34445308625381   -0.89455892292035    0.70408700546578
H         1.06392383085895    0.54630876239154   -0.03666001793403
H         1.93284078593767    0.54405056123986    1.54860704665802
H         2.61671101742145    1.98802568766156   -0.91941125178214
H         4.34761086076553    1.57081623310097   -1.31446654646778
H         2.34127238375882    2.87374583119529    1.23473922411243
H         3.38347693261527    4.67693697972260    2.03654971856291
H         3.20814858367935    3.83368677032045    4.27191221148396
H         4.72668950374948    4.63236292149972    4.07394150500340
H         5.65967633676521    2.21111901201616    3.52420875926173
H         4.17835198769454    1.77036710637355    4.00069821960581
H         6.02310580376298    4.39913021787997    1.68597639299244
H         7.34960601808900    1.84796832595982    0.46683068095576
H         6.32948681238514    1.96273876338701   -0.94881175623030
H         6.61200797446072   -0.21871419562693    1.03643112898658
H         5.73871950782043   -0.39067097874328   -0.50418756636970
H         3.18648283402260   -0.96697464924742    2.22365408643773
H         4.86815376531170   -1.27342938266694    2.53257853418833
H         3.54747345208780   -2.75437004550404    0.90121287555260
H         5.13428221794055   -2.18039716566674    0.19252758376829
