36
 energy: -47.842410239838 gnorm: 0.146879846176 xtb: 6.4.1 (79825abcba525fcdf90b791dcacef51065a7a4e7)
C         1.83167811456764    0.03628752038398    0.61002898198324
C         3.19426453236627    0.14052224435271   -0.11346390794821
C         3.38581207552297    1.56416791423807   -0.60263278288910
C         4.10938768107960    1.86711190682624    0.78071575265922
N         3.31746720812484    2.56083979328232    1.78874164151921
C         4.01177107988107    3.77497845747320    2.30963178264487
C         4.21408729783889    3.65593432680833    3.85691008815050
N         4.48940882535679    2.29816431608698    4.35225273836618
C         5.34142499276135    3.55207857744388    1.62643247516036
C         5.39070472275961    2.53330161343683    0.77960521840975
C         6.47477979189092    1.79992463298866    0.12315841098250
C         5.95708912232003    0.34685189732078    0.25519965349638
C         4.49702356905085    0.40109661618574    0.91887728545821
C         4.25375197171980   -0.93465973283961    1.62239025451810
C         4.00420935601426   -1.82847220243442    0.39686190209465
O         3.50385053210235   -1.10619058923711   -0.75517275991201
H         1.53698162494114   -1.01672872870198    0.67477357319379
H         1.02843164048807    0.50448364342553    0.03919184411048
H         1.77412174863543    0.44007901039269    1.63154719775094
H         2.40418391693451    2.02560795428476   -0.75522967435359
H         3.98857652108501    1.73455737065388   -1.50616493096669
H         2.30471185891476    2.48320804598032    1.91339001215459
H         3.49380012559908    4.68482020642651    1.99533775023930
H         3.22734129133414    3.85526219597498    4.29020400423848
H         4.90710895424479    4.45322109276655    4.15917074622018
H         5.50186643832643    2.18170930283296    4.41660494101388
H         4.09909136990481    1.67066852780282    3.64557091139194
H         6.17070875950305    4.18765461445430    1.89077533153412
H         7.41614609735969    1.82878497423308    0.68469356894225
H         6.70317126058398    2.08099770539149   -0.91012493140051
H         6.65098074432935   -0.15511072112986    0.94520125566722
H         5.92693810090496   -0.12716074427299   -0.73099348520402
H         3.37149260034438   -1.01032076464138    2.26389327843217
H         5.16361838449730   -1.26846507977637    2.14001683356429
H         3.24673038042445   -2.56500017137249    0.69575326626405
H         4.79847752430661   -2.47798632341195    0.02309660733236
