36
 energy: -47.847844296340 gnorm: 0.141476042546 xtb: 6.4.1 (79825abcba525fcdf90b791dcacef51065a7a4e7)
C         1.81741628795691    0.04724805224360    0.47087224577443
C         3.21542804529204    0.14367737421008   -0.18274321988352
C         3.37801471748604    1.59327705801917   -0.60103745557623
C         4.07245104505023    1.89470651450861    0.79749342952981
N         3.27832686815224    2.58743288193694    1.80447401168456
C         4.10080104699549    3.68265450373092    2.39738469237889
C         4.19650533471375    3.48509024633395    3.94689515447530
N         4.59497511317636    2.13957138911787    4.38905639731026
C         5.42517836584302    3.55714580430753    1.67996040140150
C         5.32855982252205    2.60636426728734    0.76119439946361
C         6.31771011495207    1.83085366197768    0.01009639349311
C         5.92517433988647    0.34683308185710    0.21123714439627
C         4.47562768020545    0.42959747626897    0.89473305251630
C         4.19598538766278   -0.86062636043599    1.66640625345665
C         4.05810452424176   -1.83817580231676    0.48806927656605
O         3.61084229111043   -1.13687709556549   -0.69825706910311
H         1.57012405377021   -0.83445155935583    1.07198244415219
H         0.99547593129063    0.04616249906073   -0.24654007507043
H         1.76364148040725    0.79050424215371    1.27990765698431
H         2.50263734790076    2.16155889850781   -0.93356843773194
H         4.12402583959105    1.77444283679252   -1.38804084092216
H         2.43634742202348    3.03497323590345    1.43296944711259
H         3.58402012300371    4.63434861154245    2.24871549685710
H         3.28424061435572    3.77000486537815    4.48330886121976
H         4.93601274541222    4.20188176656567    4.32983828208035
H         5.55446585702783    1.90575033662917    4.12928990938146
H         3.87704261644335    1.57334545673599    3.93138947421561
H         6.22886836265052    4.25709330241390    1.84027764444335
H         7.37816174711568    1.97534656282257    0.24861136872726
H         6.21713636686185    2.06367209898287   -1.05504198808259
H         6.57488689130384   -0.07929374389544    0.98959686217597
H         5.86764457141131   -0.18181938653227   -0.74552350149523
H         3.28279986252218   -0.83144412957186    2.26713331916550
H         4.95779899341224   -1.31127687567667    2.31738583155829
H         3.34530976214014   -2.64746406003687    0.69437017396496
H         5.05079511190091   -2.23668262178325    0.26854991679698
