36
 energy: -47.834921620423 gnorm: 0.146040671620 xtb: 6.4.1 (79825abcba525fcdf90b791dcacef51065a7a4e7)
C         1.85576600140369   -0.04315088204038    0.58104675612780
C         3.19817048767903    0.04034110016343   -0.18179526538503
C         3.38140398720076    1.51437651737273   -0.49226073811813
C         4.16558025942899    1.82830100166125    0.85514756358617
N         3.39773313449138    2.43183058370143    1.93712525348526
C         4.05306072671857    3.72222738245009    2.30173337588533
C         4.03417419751611    3.70385807976347    3.86649517108441
N         4.36196671764288    2.52501395857319    4.68355350834472
C         5.42274390851705    3.55546307591124    1.68481930503427
C         5.41093925509893    2.55820149292197    0.81144560613120
C         6.26583295638605    1.89424829971574   -0.17461023386863
C         5.91366854816720    0.39559319413502   -0.01068307563473
C         4.52917475506522    0.35071796745068    0.79948063248837
C         4.55840859959657   -0.98876265889686    1.53656535747381
C         4.00604138680610   -1.93256938653795    0.45618977642968
O         3.60301259453039   -1.21963205444384   -0.73901804359223
H         1.52291614854644   -1.02184056406422    0.94334305316416
H         1.11549076292086    0.55974617430259    0.05305501690897
H         1.99055646579866    0.52522922764474    1.51305285636519
H         2.51079227769822    2.17746296662692   -0.53871761656434
H         3.81465300246322    1.69815000995402   -1.48586556986540
H         2.42197017089188    2.60836624660637    1.68422371668905
H         3.60707101893842    4.66355231940426    1.97024088776612
H         3.08141137581388    4.11373688977914    4.22059302033522
H         4.85632967365481    4.38957155426271    4.11380900660616
H         5.12583535002968    1.97999897121453    4.28076724211160
H         3.57541764098982    1.87291065568272    4.72355004915294
H         6.20107139985519    4.21610364691261    2.03022642477516
H         7.31528381282196    2.15672593323659    0.00450882079595
H         5.99181166531003    2.32388950628738   -1.14371293040605
H         6.70679428322669   -0.03339518992947    0.61897941250419
H         5.85944689868194   -0.18809813767077   -0.93509557849879
H         3.91957653630662   -0.98018541287057    2.42395052076426
H         5.55059740848748   -1.30408596289316    1.88778157818982
H         3.22016739149432   -2.53593763890039    0.92940508841868
H         4.70855978746408   -2.66880703222854    0.06014298121433
