36
 energy: -47.849413294733 gnorm: 0.133764159810 xtb: 6.4.1 (79825abcba525fcdf90b791dcacef51065a7a4e7)
C         1.83515576091507    0.02441715631743    0.70078636843942
C         3.13248631631587    0.17551107296787   -0.12689274589438
C         3.36293168786441    1.63628769329203   -0.46714313066533
C         4.21003977984064    1.78827449364822    0.87012948448896
N         3.42627407532409    2.36165718617839    1.95707773852284
C         4.10180730579393    3.64389241240431    2.31351135371450
C         4.03545646831773    3.80247338252440    3.86902518029998
N         4.58091779122634    2.65237141366899    4.60688907768287
C         5.43635980068436    3.60285193811853    1.60519599013644
C         5.44843864448828    2.52993496614727    0.82663647407986
C         6.48967588922641    1.75711928138348    0.14651579002770
C         5.93852722917633    0.31129497254180    0.09468681458067
C         4.51175248941279    0.29635172870259    0.82905228120067
C         4.32974474948922   -1.09359728093174    1.44001203456752
C         3.82560838509056   -1.92782804115766    0.25131625709321
O         3.44205478393602   -1.03937281731564   -0.82700073338594
H         1.83496770745122   -0.72173777223624    1.50274267019344
H         1.07403870521406   -0.29517689115116   -0.01253546326656
H         1.49133965705919    0.99773027735519    1.08067035664866
H         2.45218759730040    2.22119840310572   -0.63516486007906
H         4.02186303944276    1.77334567703152   -1.33648342209090
H         2.44753796682793    2.47343448219720    1.67991558650767
H         3.55839489962455    4.47498962709029    1.85649154985716
H         2.96641988291350    3.70906502130600    4.09168765121739
H         4.52395524783988    4.75461446892761    4.11822997407412
H         5.56408724152870    2.50435077706918    4.37399184026544
H         4.08528975019558    1.80853928254191    4.31058168738727
H         6.16366689876025    4.38864336555327    1.72808597534559
H         7.45559262400661    1.76792107187564    0.66537360925272
H         6.62987139118837    2.11374359611295   -0.87915647741692
H         6.65148901994853   -0.24631827218241    0.71943257815299
H         5.87878861132925   -0.16784429642908   -0.88767304706928
H         3.62989306667934   -1.07308915002849    2.27990455604412
H         5.26019459993605   -1.50825705158304    1.85176512899682
H         2.96782491719318   -2.57585304177302    0.47459868219192
H         4.62683008675910   -2.61173215440438   -0.03634672087325
