36
 energy: -47.847206865086 gnorm: 0.131708698380 xtb: 6.4.1 (79825abcba525fcdf90b791dcacef51065a7a4e7)
C         1.72380471447494    0.07035246288249    0.44618355737473
C         3.14496656734615    0.20008655517963   -0.14914544294402
C         3.47849204493654    1.62563432091919   -0.54829199411208
C         4.09159322142597    1.88269529722966    0.89635901307463
N         3.24847643861971    2.56091480476084    1.87292695821594
C         4.01189510520588    3.68065995758537    2.49813080130172
C         4.23076345630950    3.36422121869937    4.01508059578577
N         4.77356535478820    2.00078304844324    4.12047578270267
C         5.32851198157346    3.59116211283320    1.76128936048526
C         5.36896416862244    2.55531514917876    0.93495040062621
C         6.33233834997361    1.88027631854574    0.06304689451833
C         5.80973380549142    0.42306611262812    0.07983360578016
C         4.43674315797993    0.39971509841095    0.91022707905117
C         4.28922486421484   -0.92187569727087    1.66520566174109
C         4.05398956427555   -1.83537909475418    0.45142319115233
O         3.65095766634567   -1.03223540358734   -0.68513258892531
H         1.00217724571194   -0.24772069896861   -0.31405611613172
H         1.38313144802799    1.04755832715205    0.79154998607199
H         1.70306264122054   -0.54096120474630    1.36036359172868
H         2.65727846179675    2.33058402873146   -0.71699504319006
H         4.18502214445529    1.84573119034230   -1.36137284324823
H         2.26432048022644    2.77388961966796    1.69039999721999
H         3.54849767379622    4.65634561101280    2.33024100762747
H         3.32924038755255    3.51825820164494    4.61896109769370
H         4.93191479968194    4.14094611719698    4.35032966229026
H         5.55368892162750    1.93284775965685    3.46506338451539
H         4.02506884840237    1.35294022141127    3.86444739287671
H         6.10666563751708    4.33394801390734    1.82679964035070
H         7.34684399358777    2.03555301343815    0.44904251614017
H         6.33558468161161    2.29645918562971   -0.94968233052717
H         6.43787937961539   -0.29136573310863    0.63171632831481
H         5.62903639725498    0.02440838634615   -0.92345819637383
H         3.47506411272678   -0.86039579536405    2.39252596583935
H         5.23069996317552   -1.14908514944365    2.18407046430590
H         3.36276752132720   -2.67162114337536    0.62022844023039
H         4.96055668665896   -2.29321384384908    0.05023195500902
