36
 energy: -47.844405031153 gnorm: 0.140603402544 xtb: 6.4.1 (79825abcba525fcdf90b791dcacef51065a7a4e7)
C         1.84371067930700    0.13481738181330    0.69229809482089
C         3.20206219407547    0.13755295352356   -0.04649979653248
C         3.53785306057694    1.53209672547479   -0.54171275726963
C         4.21315097695857    1.80673125751209    0.87163034393551
N         3.30503084692887    2.51512566915614    1.76494331607464
C         3.96467401046947    3.73781080434088    2.31031400823398
C         3.97752008812974    3.64223154688487    3.87232335004540
N         4.51128960268754    2.34645135669122    4.32037414998129
C         5.34861160505873    3.60285366742610    1.71792172467627
C         5.44172070127161    2.56535371347738    0.89793626439796
C         6.46368855448827    1.84545283012383    0.13550094701619
C         5.86122831679378    0.43472477634023   -0.07365695237031
C         4.58451689050452    0.33018621019118    0.89292553682374
C         4.42264952108413   -1.02176543221252    1.58890152862540
C         3.91234220304350   -1.94189645619893    0.46817077540585
O         3.38055446947344   -1.16187689005331   -0.63092196942344
H         1.77418194274282   -0.69486501843039    1.40410845479653
H         1.03895024291613    0.00403080270405   -0.03263160669757
H         1.55709741064323    1.05550366290987    1.22149502728787
H         2.70888211559323    2.14686400936167   -0.90869366679496
H         4.37347654039309    1.55383222847816   -1.25584783796418
H         2.41051889565484    2.81039658895101    1.36506728261456
H         3.46121712445283    4.68886495449780    2.11818412989448
H         3.00942646054488    3.80524553927607    4.35952360268634
H         4.74050978179012    4.34724488719988    4.23024742803256
H         5.45705609823323    2.25590151317500    3.94607499163388
H         3.95683301472108    1.56607771751110    3.96107933461264
H         6.15906717362873    4.24964031161795    2.01181714771956
H         7.39001549032427    1.74334789065474    0.71327099469856
H         6.75034957805704    2.31337465140586   -0.81197670491802
H         6.56159275813861   -0.36277709021380    0.21450053510536
H         5.68427657119790    0.17886504783846   -1.12313201790709
H         3.69462414535372   -0.99579238789216    2.40433813585905
H         5.29920764933981   -1.47864092516714    2.06862112524230
H         3.14165722742378   -2.67487932553637    0.74086969650512
H         4.68211108033120   -2.47902778803829   -0.08984073630403
