36
 energy: -47.841528415496 gnorm: 0.136828045260 xtb: 6.4.1 (79825abcba525fcdf90b791dcacef51065a7a4e7)
C         1.75992583955231   -0.14872800703902    0.41630516887515
C         3.15323067632676    0.14363151467775   -0.18716496822601
C         3.37452634861045    1.62332543181620   -0.44069578839219
C         4.12447472810744    1.78383946086797    0.95243121703148
N         3.48905262273109    2.33743664252749    2.14166702868472
C         4.03578820481471    3.71499695876426    2.31752213725886
C         4.17628162080085    3.99402525693288    3.85100784417144
N         4.64715970377610    2.73178133463977    4.44237898547880
C         5.40331584799542    3.54779530763066    1.69596193861741
C         5.39852541023118    2.46355096748476    0.93317565362296
C         6.43924546327553    1.71860663030274    0.22187898721919
C         5.79683426150460    0.33323806831843   -0.03291665807739
C         4.46233733817552    0.30213681915019    0.85778687543051
C         4.23622743357418   -1.03382204749422    1.56662048993384
C         3.98899010488714   -1.91602880435566    0.33224736359987
O         3.55906708536730   -1.09793429474955   -0.78360260410368
H         1.76107187429080   -1.09338531936449    0.97083413315247
H         0.93365434643305   -0.11062858098532   -0.29509585737884
H         1.52101029929821    0.68571040959344    1.09194685147033
H         2.43070887147942    2.14270990212786   -0.63882451078049
H         4.11807782369407    1.85786938386319   -1.21583983938560
H         2.47321394016927    2.25797589709953    2.04682423610811
H         3.45646762492392    4.55620776428025    1.92811389720272
H         3.24442997286068    4.32982044828473    4.32008887787035
H         4.94301579351184    4.74151492917907    4.09735034875338
H         5.35966790253149    2.33620704658514    3.82705269177520
H         3.93886249291474    2.00012713396781    4.35021022472806
H         6.23119970809230    4.18570948217922    1.95905802930730
H         7.39317721208781    1.79466339360377    0.75718716540937
H         6.69394500888397    2.02819060160397   -0.79700530326958
H         6.39089930842545   -0.53773394662786    0.28021078172025
H         5.62093775706317    0.22271970355776   -1.10763529641410
H         3.46717667467595   -0.92771182925407    2.33664254196635
H         5.11367626653247   -1.49426409540712    2.04127502099175
H         3.28697454724545   -2.75424166161085    0.43303070283819
H         4.91191697101089   -2.33160789854259   -0.07754655148664
