36
 energy: -47.839311254661 gnorm: 0.141047503050 xtb: 6.4.1 (79825abcba525fcdf90b791dcacef51065a7a4e7)
C         1.87671926172040    0.08636832788219    0.45936912397327
C         3.24240079253849    0.19490362503005   -0.25762644582872
C         3.36911434154521    1.67780560535804   -0.55374981904073
C         4.05185254442392    1.83104860855175    0.87431705859148
N         3.30433693163082    2.32958094080448    2.02200973867813
C         4.04488488523718    3.54641226392692    2.46746159177856
C         4.22840600732250    3.59810134940751    4.02078760977162
N         4.75270420157188    2.32930956876272    4.54992322441635
C         5.34663927998243    3.48244341564527    1.70210636848594
C         5.29513520872434    2.55606208345571    0.75520811496639
C         6.28327660294543    1.88861595396518   -0.09454194508812
C         5.93712108119800    0.43305040320053    0.30340799403328
C         4.44993922592975    0.36159011272106    0.90206101519525
C         4.14986478161353   -1.00193662587060    1.52584519429521
C         4.00740348515224   -1.85305197831779    0.25368191048402
O         3.62638377833252   -1.03936907382709   -0.88297004024984
H         1.21669549056278    0.89078712400397    0.11708250252211
H         1.87140578127909    0.15528048910189    1.54817141607463
H         1.50821818752103   -0.92661757856068    0.24044838596234
H         2.40482144998198    2.12637357862343   -0.81591873841081
H         4.07867958741760    2.02309886198217   -1.31926769509188
H         2.37504208659956    2.60447490073017    1.69325189431886
H         3.49051138082349    4.46735788527307    2.26892739880438
H         3.24370727142476    3.80074827726258    4.45718824162569
H         5.04939568557225    4.29816178233765    4.22862899487520
H         5.73759939772135    2.19081816880776    4.31846053515601
H         4.17901437934763    1.52617224500929    4.28281218161236
H         6.10727826573664    4.23368555244921    1.83852176979066
H         7.28472320667981    2.31438984712795    0.04016678968925
H         5.98372660345582    2.09182289155417   -1.12789373943022
H         6.59933257050327    0.05249392585924    1.09474039500125
H         5.98516207267304   -0.25590133516332   -0.54583374738675
H         3.28253585760708   -0.98980318135176    2.19159712600213
H         5.02590875409621   -1.33914642262667    2.09685892627807
H         3.17910580608961   -2.54221724843682    0.46476975857886
H         4.89621267509156   -2.45481984877897    0.05287188771996
