36
 energy: -47.836153862406 gnorm: 0.133012347989 xtb: 6.4.1 (79825abcba525fcdf90b791dcacef51065a7a4e7)
C         1.69264279192324    0.05921767437092    0.48845647601495
C         3.07559610484294    0.13915694783358   -0.19856500850119
C         3.37867267081473    1.57432424808909   -0.58738779049644
C         4.09483313723452    1.89469128249407    0.79589428670249
N         3.35042350180479    2.50530888701600    1.89020380653224
C         4.09540311720520    3.65835606263145    2.47586994867158
C         4.19967302801156    3.50886538907626    4.03020387027895
N         4.69857566244016    2.21503990517931    4.52195330172840
C         5.40352643245954    3.51739461435565    1.73198246198926
C         5.34723050760357    2.61308068266334    0.76425382534273
C         6.30258988070277    1.92058989078319   -0.10276876829285
C         5.93167250072799    0.46709642209649    0.28016208149344
C         4.41116172528871    0.40524618445122    0.78949852573939
C         4.31921747401648   -0.93149803390011    1.52639607150285
C         4.09706241325643   -1.82013858941814    0.29186897389220
O         3.47080841269498   -1.10322593500570   -0.80041109564238
H         1.15018327409012    0.95361999863668    0.16339759318287
H         1.78371295875776    0.11041575475360    1.57443647082647
H         1.21833156811453   -0.90833678932572    0.26771451053152
H         2.52071228145069    2.14919883592965   -0.95239439558156
H         4.13024763302185    1.63932875536721   -1.38716116407809
H         2.38973156836923    2.75948466012457    1.64586167238124
H         3.59720333925406    4.62859665345038    2.40295281053738
H         3.18779979979283    3.54848800331918    4.44935245734375
H         4.82702712007865    4.32110852867878    4.42262540291966
H         5.64463674904107    1.95097082588660    4.24265177491305
H         3.96680841955356    1.52860654257667    4.32491566287691
H         6.28516440507517    4.02373518027070    2.08958481116813
H         7.36719163507467    2.18202705648250   -0.07829493554514
H         5.96903738657169    2.08412650646442   -1.13273856243719
H         6.43650361678114    0.15523092596703    1.20614251632688
H         6.22727277796675   -0.25260783229531   -0.48978616091917
H         3.55022834156866   -0.97312343240164    2.30264051895080
H         5.28106282592782   -1.28650807463887    1.92141713053775
H         3.42499573983365   -2.59794948871071    0.67777116914816
H         4.99191234878465   -2.32450075682215   -0.07866231060127
