36
 energy: -47.848952047287 gnorm: 0.136485289551 xtb: 6.4.1 (79825abcba525fcdf90b791dcacef51065a7a4e7)
C         1.79724743826324   -0.07188261030885    0.41854160506037
C         3.20927101398302    0.06955920058964   -0.19556932363718
C         3.42052605371851    1.53452409594852   -0.53022260524430
C         4.06525966240051    1.77185486623794    0.90399584679157
N         3.22451966761567    2.46224424081979    1.87406354350913
C         3.96864074891586    3.71652002688285    2.19122779951324
C         4.22120515415911    3.87800400058218    3.72723158942003
N         4.72967242999230    2.75812071426565    4.53471417887156
C         5.34767389334654    3.53437167498857    1.60003010233049
C         5.34460355536482    2.43981457615612    0.85210853192469
C         6.36945468045279    1.76344288556407    0.05449683389759
C         5.87869653936511    0.30473408474594    0.22237763527526
C         4.43868439409990    0.29591429764255    0.93053660491606
C         4.23704781747794   -1.00348150706801    1.71109396275336
C         4.09042156607260   -1.91611598934823    0.48280611454237
O         3.62850349163463   -1.20982640608573   -0.69491212919233
H         1.63033912739485   -1.08975569070111    0.78726523648619
H         1.06373336516199    0.01036256153733   -0.38486388904997
H         1.69154762612913    0.63372184921339    1.25568536353403
H         2.47849463038580    2.06509806426721   -0.70593435914300
H         4.15869812223731    1.69303471231711   -1.32941236652264
H         2.26366315693152    2.61855837888694    1.55853546641009
H         3.49131508958423    4.65819073310406    1.90784970967043
H         3.34787248438624    4.22037305322229    4.29399112423790
H         4.96885245098241    4.67336042283477    3.85268431680689
H         5.52341184579072    2.34159219662064    4.04557705451281
H         4.01561681120708    2.02700049914139    4.56766394560058
H         6.09516824389426    4.24349468248958    1.91616667921751
H         7.39772369417468    1.88106715181908    0.41664669484728
H         6.30850439098717    2.15683377210821   -0.96548741234841
H         6.70465856363014   -0.13666296606799    0.79901411970837
H         5.71437569612988   -0.17369543814214   -0.74833232563117
H         3.32188172007054   -0.94089632749796    2.30622960965521
H         5.07019062838972   -1.30112704911672    2.36263087949534
H         3.29356055414929   -2.64357886871590    0.68626171660244
H         4.99292425779912   -2.50034924858098    0.29151731621592
