36
 energy: -47.847563485694 gnorm: 0.136462306611 xtb: 6.4.1 (79825abcba525fcdf90b791dcacef51065a7a4e7)
C         1.83677079356965    0.15001598218825    0.64795945768664
C         3.15696404942396    0.18821170452593   -0.15614221697903
C         3.44518096247781    1.62448824949782   -0.55210233367092
C         4.19277732188387    1.76724960164857    0.84421747496638
N         3.42703263727281    2.42056012038429    1.89841542466155
C         4.05230839953686    3.71125502837423    2.31151844946339
C         3.95307376880231    3.79075128204309    3.87132819401417
N         4.53731691599291    2.64888429428002    4.59209545697622
C         5.43735023087049    3.51326531575903    1.73978029298645
C         5.42918592863460    2.51305506849035    0.86974326801130
C         6.42816405491816    1.74621006785054    0.12276626471160
C         5.92803050676797    0.28210475402306    0.06689968440178
C         4.51666910786021    0.27947933901184    0.83061048740609
C         4.36354277478210   -1.10880400867737    1.45316854063220
C         3.87395610767825   -1.93149827605016    0.25043369515004
O         3.43200772830805   -1.05676076493914   -0.81668836584131
H         1.36955463064981   -0.83392061820598    0.76397214680702
H         1.09014241783842    0.79668515116822    0.18467486179018
H         2.09340811897172    0.59903009747670    1.61872379268444
H         2.66912855173247    2.35276481706848   -0.81125967266579
H         4.30614466008277    1.57462425490010   -1.23399897942454
H         2.42346336892577    2.43271463308089    1.69856953032942
H         3.44199997846318    4.52911735351033    1.91971291915554
H         2.87339375599470    3.74222185464808    4.05320419888765
H         4.41667955367565    4.69424500666608    4.29094170449871
H         5.55206039775642    2.55501376013343    4.52684678522427
H         4.19706898760513    1.72643017990619    4.31136846421558
H         6.26659057399872    4.11815932531037    2.06842813885589
H         7.38593987841432    1.76734143741050    0.65619308876111
H         6.55450905439041    2.12389573644360   -0.89715027621758
H         6.51544550160554   -0.43922092622150    0.65357438205317
H         5.88984936929344   -0.12376727206412   -0.94896651407362
H         3.57491254355323   -1.10621527863620    2.21059052351226
H         5.24762045761211   -1.64011522329370    1.83176502509304
H         3.05665131777372   -2.59214575446272    0.56846153114141
H         4.68202603373395   -2.55013422739432   -0.14547486912140
