36
 energy: -47.834600880673 gnorm: 0.147624176919 xtb: 6.4.1 (79825abcba525fcdf90b791dcacef51065a7a4e7)
C         1.81754744168244    0.11298060758127    0.58803708533344
C         3.16202610000783    0.19666345464093   -0.17112229360637
C         3.50703126811773    1.66433681227364   -0.34331423552713
C         4.19615290806883    1.62890617937261    1.08946145233627
N         3.39504015505322    2.19857601911101    2.16566194979066
C         4.00005971783700    3.55403354871822    2.32123649083923
C         3.94119264056993    4.00977933174814    3.81723249572679
N         4.81403105901425    3.20216693169929    4.68361637283015
C         5.40880486532143    3.49303082311580    1.77704802670671
C         5.42270655775471    2.38976862329420    1.04215287455610
C         6.35977801317966    1.65986989844645    0.18592385157143
C         5.85208981281674    0.19914682843820    0.11244042675218
C         4.45641735747313    0.14035775472229    0.90227859128783
C         4.25131865138719   -1.31083551939983    1.33854624467116
C         3.96970431381157   -1.96391070888984   -0.02427371249748
O         3.48997884209686   -0.96155883627226   -0.95399828010599
H         1.20139868841220   -0.60982797085430    0.04233607641907
H         1.14904520357541    0.97494509354527    0.60777396753378
H         1.95700096777779   -0.18493211244950    1.63763725281248
H         2.56682656317421    2.19100324412251   -0.53938619422660
H         4.09287947903565    1.72482777454186   -1.27167336652693
H         2.43551675127881    2.30153299927404    1.82514457914444
H         3.51475643043244    4.23883506468976    1.62094061327332
H         2.89185198284979    3.98167605700489    4.13225203026740
H         4.31711636189699    5.03524585171800    3.93725958308938
H         5.69895271983551    3.17560705159749    4.17471400020064
H         4.38949516372200    2.27379490294328    4.74186187388810
H         6.16638423630234    4.25564045785059    1.85480250984211
H         7.38436462888017    1.63729380374701    0.57584413975805
H         6.39340724511959    2.04728243750785   -0.83760918418535
H         6.55440079066130   -0.39256224648223    0.71758005789055
H         5.75173668060289   -0.07537419864036   -0.94242519774146
H         3.48456836887944   -1.45496806974945    2.10467431686411
H         5.27185122644731   -1.60060197952849    1.62449886374634
H         3.20819431009193   -2.74891019612164    0.07300031004733
H         4.89618505859005   -2.32769042511930   -0.47341598851549
