36
 energy: -47.841175070514 gnorm: 0.156602979363 xtb: 6.4.1 (79825abcba525fcdf90b791dcacef51065a7a4e7)
C         1.78930551553666    0.02842242523868    0.61614004164212
C         3.14169078042177    0.06720241719284   -0.13252468472474
C         3.47141178227308    1.46881907053579   -0.61158476169558
C         4.20961561172991    1.81000487868309    0.75503059041553
N         3.35088712288036    2.40860191363930    1.76931845270197
C         3.96286779880600    3.69825684505473    2.20496402797325
C         4.00596214696692    3.81839911579704    3.76473399103311
N         4.67565588268721    2.76280133324195    4.54057505136905
C         5.35826212395358    3.58431379395132    1.63547565534293
C         5.45043551639185    2.54637402535710    0.81594117258204
C         6.46254705514718    1.69502022606367    0.18760194593075
C         5.84707848484193    0.28037100316675    0.05789057125237
C         4.46636791571784    0.31393328264236    0.87502824757872
C         4.36880018581033   -0.96363960607646    1.70968081699620
C         3.99499724981976   -1.90072220249185    0.54983615566448
O         3.52031401178895   -1.22201507951151   -0.63897250939830
H         1.45068312086875   -1.01028718822712    0.69550209338995
H         1.19205780488953    0.66097356061060   -0.04222292524862
H         1.82643788627850    0.52965054073440    1.59453227114796
H         2.64276513195283    2.11731372948885   -0.91589717880640
H         4.07646815732695    1.50449915787089   -1.52884245904568
H         2.33434726884039    2.32323893840770    1.68809471690988
H         3.37496274596332    4.56405430502557    1.88929149799973
H         2.99772917060977    3.81542227254902    4.19438539407839
H         4.47096940813377    4.78617933112828    3.99813586876897
H         5.54248183488067    2.46931428876174    4.08752811771688
H         4.00280582890425    2.01189124133326    4.37056114798983
H         6.14027730137577    4.30784830267071    1.79825100930198
H         7.44448521897435    1.61664615023291    0.66924518406682
H         6.69641994264228    2.06735163444087   -0.81515030505736
H         6.41399763075786   -0.49070900417288    0.59973244878174
H         5.66902587712411    0.01451062440141   -0.98890910550821
H         3.57674454856479   -0.91748831551310    2.46211043436174
H         5.36587995266447   -1.10635348281458    2.14863973566310
H         3.17313727902900   -2.59734319355440    0.76161268359053
H         4.89804240780191   -2.39872407602600    0.19076149526528
