36
 energy: -47.842898166568 gnorm: 0.142322980637 xtb: 6.4.1 (79825abcba525fcdf90b791dcacef51065a7a4e7)
C         1.78479712483171    0.02396238821617    0.58341153616397
C         3.15816540203187    0.18815602290415   -0.10785445936839
C         3.41031719565203    1.64348101220559   -0.45598140070367
C         4.19394521682591    1.78912636226086    0.92013802610015
N         3.34891829287966    2.33126315472129    1.97679788832398
C         3.93611136367162    3.63878582349270    2.39285797465287
C         4.19607038892900    3.75229928317876    3.93191924451586
N         4.68349184095538    2.44037670261568    4.38577514963803
C         5.28165879048608    3.61996877084784    1.70469131624088
C         5.39073458309856    2.59582722480896    0.87001282803987
C         6.48147319393372    1.74471973758947    0.39054591659899
C         5.86221859111903    0.38557472665024   -0.01701706314646
C         4.52501375208246    0.30384657989429    0.86638873856064
C         4.32128064707750   -1.08645038509575    1.46964989834492
C         3.91969682067154   -1.87511533108375    0.21273697344802
O         3.53696801720357   -0.97654413682827   -0.85746022647265
H         1.61474600012858    0.56815773568495    1.51872707649333
H         1.64851363013380   -1.02789098281155    0.83894794713746
H         1.09955759742046    0.20256139960471   -0.25825880893437
H         2.64920600582279    2.41142216325635   -0.63143159487271
H         4.11322925430969    1.75519767642559   -1.29393245767972
H         2.38952696737246    2.43797706451665    1.63706592163409
H         3.17161584180232    4.37458106065219    2.13010583639375
H         3.23783553703313    3.96228539533728    4.42062643328067
H         4.90508128969260    4.57097291553999    4.11734781450837
H         5.60541935528912    2.34609261159248    3.95690038249618
H         4.04137592000205    1.73649804294597    4.01464193294805
H         5.92062743018146    4.45798505018690    1.93050873749139
H         7.23061230795517    1.60884918408141    1.17963084277499
H         7.04423777862005    2.12670598118135   -0.46748776939583
H         6.42457466701326   -0.53274036374697    0.20660618009657
H         5.71911336442599    0.41347522424420   -1.10187488245541
H         3.56763596155524   -1.01289228680873    2.25847262518082
H         5.24816133359708   -1.52736243429612    1.86170730363254
H         3.05678569385556   -2.52076873014697    0.42273695081779
H         4.71846367938402   -2.49814878345611   -0.19497844042949
