36
 energy: -47.842515538269 gnorm: 0.123717397717 xtb: 6.4.1 (79825abcba525fcdf90b791dcacef51065a7a4e7)
C         1.65708761121553    0.07171052131359    0.39777304697133
C         3.11732761276654    0.18345795492786   -0.09837239679357
C         3.44306180897197    1.61073914945480   -0.49775861045666
C         4.10316433539058    1.83715912364401    0.93122312080603
N         3.29589562370205    2.52442743380468    1.93146928226714
C         3.98670978098530    3.74947146888383    2.43102924413001
C         4.26506588005751    3.59934884715801    3.96372447720438
N         5.01358988566769    2.36070154748373    4.22862142892903
C         5.30821749119274    3.66041846748929    1.70294117182175
C         5.35546894700553    2.55523026125840    0.97234008898826
C         6.38293456934404    1.80579885827161    0.24663342953842
C         5.84190814705287    0.35705389711630    0.17391858344091
C         4.43135001922674    0.35028867411417    0.93908659217933
C         4.26067669901441   -1.05200893457827    1.52456835596514
C         4.07778293305584   -1.89443273556029    0.25179025965857
O         3.43086566047556   -1.06146470427857   -0.74163607262221
H         0.97473756807645    0.79728373835657   -0.05810308402134
H         1.55637311729405    0.05641693499176    1.48400058329057
H         1.26260825465135   -0.87223432886715   -0.00622440921994
H         2.59798745050034    2.27200404965538   -0.71772380777932
H         4.12096030659136    1.61426095664262   -1.36330420749862
H         2.28601777481523    2.41296744831751    1.80915492300215
H         3.43007770641503    4.68159953208093    2.30381001381230
H         3.27144090902903    3.52866953056014    4.42073297407484
H         4.69563299466346    4.51487950391662    4.39235287859340
H         5.82246947605484    2.27081171497427    3.61184997634602
H         4.27863672131470    1.66391322747558    4.08781031017606
H         6.09777351972052    4.27861850254321    2.09787876692654
H         7.32793046556942    1.86377031338020    0.79975846532089
H         6.45517415250783    2.22765752610648   -0.76116415592113
H         6.55282099642396   -0.35297435333344    0.62115131877886
H         5.72633157305945    0.14577858593182   -0.89387298196979
H         3.43318477976261   -1.27469179463124    2.20376043523484
H         5.21600290621210   -1.33935868346774    1.98500532975052
H         3.45819122118815   -2.77301548932855    0.47490989453684
H         4.98893419735576   -2.25158686761903   -0.23264274585807
