36
 energy: -47.844236645727 gnorm: 0.124034470416 xtb: 6.4.1 (79825abcba525fcdf90b791dcacef51065a7a4e7)
C         1.83455970858760   -0.04887381987513    0.63722331657776
C         3.17228011550356    0.06146785261003   -0.13042077138817
C         3.42923576722726    1.53444535020110   -0.38937014494896
C         4.21595215895852    1.64917889480876    0.98791111335688
N         3.45441443131420    2.27811417875301    2.05983160894913
C         3.94297126449997    3.68357528123406    2.17605792364741
C         3.97412713469796    4.18407100775730    3.65852443616759
N         4.65083640427567    3.21690585380327    4.53679652137447
C         5.31951741587016    3.58431427379327    1.55986535533735
C         5.43147724355098    2.42636783004772    0.92419509605069
C         6.52581658178362    1.62670150525753    0.37017487342381
C         5.90201925690109    0.24649140653762    0.04961911748977
C         4.52352872332438    0.16280528045956    0.86690888026572
C         4.25210258420107   -1.20381442087238    1.49701620940424
C         4.05728694256840   -1.98139863328817    0.18533724409897
O         3.43981718330174   -1.16011980698660   -0.83616446934490
H         1.38313872114647   -1.04458151005315    0.70553436174257
H         0.97756399423816    0.52202017095334    0.27679863602189
H         1.96693854340709    0.18601099015381    1.70360258732617
H         2.58036721097273    2.22153522662007   -0.47384668562005
H         4.10994823188268    1.63437467687562   -1.24690883738344
H         2.45196471059594    2.12233794420993    1.92542284870307
H         3.35096619507971    4.39634860366600    1.59608299438649
H         2.93245123178233    4.33355918230095    3.96464128071814
H         4.57684579154311    5.09999310958525    3.73010418276957
H         5.62493681184555    3.03857803691161    4.28759582534270
H         4.17357239612341    2.31445881958588    4.47929602029753
H         6.00861390713782    4.40228471734618    1.69259106120315
H         7.32103620302746    1.49637063919236    1.11379095064922
H         6.93642020187406    2.05117820846237   -0.55181399568537
H         6.53444702967632   -0.63545817342750    0.22781667080907
H         5.55540440054352    0.25125745469222   -0.98865322210202
H         3.30097729669856   -1.18258855878549    2.03603619524856
H         5.03955443849194   -1.62469074649005    2.13733093212394
H         3.43899513039242   -2.81919774008178    0.53375050224112
H         4.91720560237024   -2.31090529711084   -0.40151562244214
