36
 energy: -47.842540366045 gnorm: 0.134271875627 xtb: 6.4.1 (79825abcba525fcdf90b791dcacef51065a7a4e7)
C         1.75451521640282    0.10833819490014    0.43387906760893
C         3.20465905899029    0.12067762299568   -0.10266470535511
C         3.51485955792363    1.50491275938906   -0.64156399892408
C         4.10314526900047    1.82649135387751    0.80048221036812
N         3.18474806415624    2.52003809373620    1.69493868202552
C         3.93799054907281    3.67054085574808    2.27501315042395
C         4.05687572388537    3.55681438817456    3.83132488268296
N         4.78230509322759    2.40960022869849    4.39909034673413
C         5.32336031916391    3.56523055415656    1.67996218414103
C         5.33624176280875    2.57817448345522    0.79508592193425
C         6.40115721052228    1.80056978750409    0.15847833417535
C         5.92893501260143    0.32961141253840    0.25920897375837
C         4.48602736520908    0.36148048576035    0.96078146912238
C         4.33528961998382   -0.94660745735474    1.73830376590375
C         3.91218930013594   -1.83273965582934    0.55557475412568
O         3.58163102950487   -1.14155170857584   -0.67415042938443
H         1.51985094551018    1.15019957558660    0.67747435030344
H         1.62818387556796   -0.46848363968842    1.35125822861601
H         0.98229328073940   -0.21174846100982   -0.28101784917208
H         2.77870648218798    2.20959526839634   -1.04319547186031
H         4.36895883834092    1.44214831374988   -1.33098621699286
H         2.36287512969229    2.90168727042862    1.21943245460453
H         3.41155129216276    4.60825623948971    2.07895629583633
H         3.07066942630023    3.40286996349849    4.28391870769353
H         4.60651535354960    4.42248608602337    4.22605962906785
H         5.76662101214240    2.36737295956934    4.13055277174742
H         4.46999855841061    1.49619947605201    4.06195301026690
H         6.07473807309132    4.29607392409430    1.93065154947145
H         7.42072286909499    1.92762639612474    0.54145057019669
H         6.47622570775633    2.09996501247727   -0.89202939566678
H         6.66744206554242   -0.24693073896387    0.83519577735691
H         5.83194042863638   -0.22064219450727   -0.68205987679688
H         3.62627049060038   -0.91052893406067    2.56994228057900
H         5.32535436822644   -1.18781931247944    2.14916734376526
H         2.96313520785727   -2.30701969377743    0.83830906261877
H         4.60363723882482   -2.56932439556298    0.14111883743010
