36
 energy: -47.837664486813 gnorm: 0.141142704317 xtb: 6.4.1 (79825abcba525fcdf90b791dcacef51065a7a4e7)
C         1.69932220871114   -0.22509248225752    0.38606408327014
C         3.11622121082365    0.12435879450961   -0.12504224777916
C         3.35385114017955    1.58291798705026   -0.46983323761845
C         4.03218292805212    1.88261464526234    0.93694963567976
N         3.15647318881805    2.55551233496070    1.88818781317262
C         3.94119496093143    3.73545457956916    2.35665903387961
C         4.38819778748689    3.50995980837092    3.83939777947231
N         5.14883038926113    2.27879522098211    4.10468540570833
C         5.17628595878619    3.75827562157708    1.48576595476882
C         5.29856614554480    2.57574405908977    0.89914996740778
C         6.34052246955807    1.84092859354677    0.17918018271025
C         5.79433330094809    0.39563488224912    0.27747820535193
C         4.35303875105495    0.39483942154299    0.98307829728748
C         4.16174552211449   -0.92646615098767    1.72867561881274
C         4.01724797548637   -1.78578726898690    0.46227136144134
O         3.67404741196433   -1.04878058876199   -0.73700679767767
H         1.72705841723906   -1.22691458003948    0.82817753941740
H         1.10157555964090   -0.20870172768303   -0.52645871034835
H         1.31801450057256    0.57526684813856    1.03713179315522
H         2.52034177001803    2.24884542996892   -0.71804565642172
H         4.01947509053934    1.53215711902493   -1.34338693068492
H         2.17254153039621    2.76253747257652    1.69777643361381
H         3.27819993525570    4.60441960849052    2.34168887586212
H         3.51712594891509    3.49764289250592    4.50439782840959
H         4.98444347855422    4.40244601381396    4.07448537710545
H         6.15403577507066    2.43459918344367    4.01490424321120
H         4.86237333334534    1.63489023806562    3.36385707399916
H         5.79453340387835    4.62931701008771    1.62930247693454
H         7.33697967686147    1.90003373787374    0.63294760590404
H         6.45083726383781    2.21710071781942   -0.84315267179471
H         6.43928816662848   -0.10434951944296    1.01477267395181
H         5.87323719569600   -0.18777259072928   -0.64533485088752
H         3.36058893056437   -0.99989070189149    2.46920878234349
H         5.03592253308132   -1.27385266345007    2.29644090461330
H         3.36839097094542   -2.62808762132986    0.73631263248719
H         4.95590975687723   -2.30521028000481    0.25844587027346
