36
 energy: -47.840633361340 gnorm: 0.137012267638 xtb: 6.4.1 (79825abcba525fcdf90b791dcacef51065a7a4e7)
C         1.73744240866084   -0.01319956550810    0.37153397982227
C         3.18914073889742    0.19745894857450   -0.11748906978030
C         3.56399213439702    1.61925317120483   -0.49263074543653
C         4.14605024163778    1.86657848936657    0.96648832809610
N         3.24357168747076    2.55030685313996    1.88439931565500
C         3.94657882007322    3.78262253194487    2.34775248188339
C         4.24157224560702    3.40848322635045    3.83844768023692
N         4.88035137358545    2.10830454778968    4.09574578918881
C         5.25791892105415    3.77136204731606    1.59629688788342
C         5.36505273806099    2.63921156315472    0.91496804982103
C         6.30939628251566    1.82748879458444    0.14470552695679
C         5.81480878276997    0.36316779565127    0.23418229504080
C         4.41613390049575    0.36903097491364    1.02086908032789
C         4.22672222989828   -0.95204891882385    1.76734593212884
C         3.96244868737057   -1.82867718348636    0.53252838451352
O         3.61701053845221   -1.06569579941019   -0.64974292088623
H         1.74478682031196   -1.08476514508874    0.59863391007792
H         1.05942997602462    0.23530133105968   -0.44627650901068
H         1.38817361584117    0.46363285988962    1.29916640746504
H         2.78301003675204    2.29146470264751   -0.86412123543918
H         4.33218869235383    1.71238052330802   -1.27361041484151
H         2.36951521435563    2.76780206079221    1.39864377895446
H         3.43291590818522    4.70069343033878    2.05079642902100
H         3.24683621267803    3.46554126268742    4.29494248228405
H         4.91015636310749    4.20174534214910    4.20043829339675
H         5.81413470322131    2.04118400885581    3.68792607376805
H         4.29673509872584    1.40849580531460    3.63189489455629
H         5.94805887045131    4.57268981895604    1.80396546868019
H         7.31874251433533    1.95135313095054    0.55483108733819
H         6.29930421650708    2.20546491584032   -0.88285050624828
H         6.50051488349621   -0.18203287797601    0.89910156274779
H         5.75632664774715   -0.14661189094368   -0.73270884643888
H         3.41602484252431   -0.84849520118164    2.49376089601719
H         5.14542486228712   -1.30243059489264    2.25769104211837
H         3.05678229572191   -2.38866605142769    0.80041782343848
H         4.80008873058015   -2.43993253850809    0.19024624346594
