36
 energy: -47.837543994680 gnorm: 0.138328488063 xtb: 6.4.1 (79825abcba525fcdf90b791dcacef51065a7a4e7)
C         1.99513979588022   -0.69867530799778    0.63106564847830
C         3.21449911953488   -0.04294073541810   -0.05750073429120
C         3.15654591252079    1.47033203233153   -0.15440624517256
C         4.13221999630837    1.55351176970134    1.09864257621974
N         3.47471776073893    1.83103001268503    2.36954277941218
C         3.74596473779194    3.27600935335277    2.62640269818833
C         3.95345376882721    3.50598738266198    4.16042747736632
N         4.31693331935073    4.81743934473085    4.71960731791004
C         4.93707000114610    3.54492850507187    1.73568609568346
C         5.17969940301254    2.53092934674568    0.91691365975740
C         6.25533057883988    2.00241374341573    0.07568120956698
C         5.75529596137788    0.57646189890365   -0.26119521471212
C         4.64212710764075    0.14763369677557    0.81219360306126
C         4.87987801403389   -1.34293923884500    1.05719099739948
C         4.46009923588861   -1.93723779329669   -0.29694602887048
O         3.65199472020173   -0.99284532726757   -1.04147510248132
H         1.56063394386146   -1.50385470851844    0.02876014596347
H         1.23332010028454    0.04537092656308    0.86832819400679
H         2.38906986872334   -1.18846492356663    1.53372007732082
H         2.17039246455151    1.94681138147515   -0.13780988145363
H         3.72066365145932    1.84490009679188   -1.02054589473986
H         2.47842678323857    1.60079201450882    2.40994262778976
H         2.93400263411299    3.90308292243344    2.24906597554636
H         4.71433232469126    2.81240807857769    4.53613280545061
H         2.96251888907672    3.20754871436172    4.52960108896405
H         4.01499377736131    5.60106054305312    4.13862217904432
H         5.33830478885121    4.77737030796069    4.69328845189822
H         5.64812528432322    4.35411822832500    1.76971684193466
H         7.17325960680964    1.92276123815378    0.67014484820930
H         6.49917195768115    2.66050972792309   -0.76472960407512
H         6.63540973743132   -0.05916127189859   -0.08530537094998
H         5.41215552030741    0.44452068349251   -1.29222391680162
H         4.30586181808413   -1.86430745568034    1.82810798975969
H         5.92308611088469   -1.65217736089584    1.20986356916475
H         3.84775613149237   -2.84661151207700   -0.23645404086489
H         5.29069674853137   -2.24152541412080   -0.93721773371237
