36
 energy: -47.846846208842 gnorm: 0.132631262949 xtb: 6.4.1 (79825abcba525fcdf90b791dcacef51065a7a4e7)
C         1.87758071433664    0.12297291384017    0.59577223012639
C         3.24328925234463    0.09213908744994   -0.12868479114522
C         3.51290669341924    1.50416349854173   -0.61472704918179
C         4.12481867802889    1.83491916946452    0.81536190257641
N         3.20729449652292    2.59170866095621    1.65793633476591
C         3.92561424863749    3.74899074783949    2.26804458219539
C         3.96656185298445    3.47875527213646    3.80897599860616
N         4.82868740306933    2.32657247394130    4.11543976187895
C         5.29581845227296    3.60838390009127    1.64579432357778
C         5.38449736927061    2.53928619982506    0.86693770456099
C         6.46105900275084    1.80224122254999    0.20228531691517
C         5.90906966650044    0.35580955752976    0.20082733687664
C         4.49581527211179    0.36532407317686    0.96097431367770
C         4.23906923021164   -0.93080650371069    1.73070385403257
C         3.86100509320338   -1.88707265838076    0.58802518237241
O         3.52259580219433   -1.21606738669644   -0.65070990238474
H         1.99838012549749    0.79548497074265    1.45193583841247
H         1.61996470258237   -0.86310114361608    0.98507862842985
H         1.05037011392507    0.51909669592329   -0.01140840115650
H         2.63897815672695    2.11082064513156   -0.87553839284863
H         4.33189397262591    1.68006781711717   -1.32679823615756
H         2.34109803250156    2.78089459523847    1.14690823641923
H         3.58621292230216    4.76749258263967    2.06225966043027
H         2.96313731967350    3.22455563343868    4.16906578877657
H         4.25735497020685    4.41067848672502    4.31322316462574
H         5.83055420550083    2.48296466977979    3.99470125173571
H         4.56654799614015    1.50396175522360    3.56763283994826
H         6.12146554705009    4.26069631610173    1.87890596230038
H         7.34568905801217    2.04963169498734    0.80107811418365
H         6.69040798545658    2.20738693690321   -0.78872185677203
H         6.64855432194124   -0.26706881254267    0.72498308605652
H         5.79445495258822   -0.04571754427519   -0.81100932818407
H         3.47066903012558   -0.84133736666402    2.50348374209242
H         5.19701485362374   -1.13528231276285    2.22844878942774
H         2.92491482992180   -2.38746453979300    0.86896445653140
H         4.56720989358482   -2.68876972040332    0.36222082226630
