36
 energy: -47.840805312850 gnorm: 0.144708268277 xtb: 6.4.1 (79825abcba525fcdf90b791dcacef51065a7a4e7)
C         1.74812511116955    0.08813164615909    0.61070882921767
C         3.13503380558714    0.10584344229322   -0.07275236637388
C         3.48275304539759    1.49765842085570   -0.56740993063714
C         4.17225339878422    1.79027795960332    0.83542762151681
N         3.34293232127506    2.50745537368407    1.79584210079731
C         4.06951365525163    3.74179439421114    2.21537038064262
C         3.87862504192985    3.81990351175504    3.76670339308722
N         4.64604238478395    2.75469089508430    4.43085580230195
C         5.43419393722189    3.51942485145900    1.60494033480342
C         5.45485488666564    2.45372838887087    0.81670445410698
C         6.44510285173477    1.64163960342153    0.10684251161235
C         5.78697229102856    0.24042573706505    0.12481089889852
C         4.43167219951725    0.29705854585927    0.98222354565547
C         4.29266999186780   -1.05849015283754    1.67614208914097
C         4.08621623681207   -1.92657223638961    0.42438236619241
O         3.47336826157950   -1.16646025746812   -0.64607581198983
H         1.50222333700573   -0.95763141379047    0.82470195378080
H         0.97508439219190    0.52204222265002   -0.02521350769672
H         1.85889406520370    0.63119859113732    1.56079741304495
H         2.52093637343806    2.00950343135543   -0.68023721168150
H         4.21598835156629    1.67461655382468   -1.36727226565876
H         2.43814109526739    2.79433394096017    1.41336215404533
H         3.65055610611399    4.59219156803576    1.67114070453182
H         2.87378122796763    3.47628242269644    4.03754721617424
H         4.04374832601540    4.81707872517838    4.19761246764268
H         5.57081971568531    3.14708701606425    4.61411946897418
H         4.59838169733105    1.88458694311090    3.89593014271424
H         6.17442828456750    4.25444176684240    1.87577048250068
H         7.37737279102720    1.56614501853030    0.67911741899202
H         6.73271374509286    2.00241373893705   -0.88611331657830
H         6.46118150314096   -0.39638524204231    0.71596910211783
H         5.80189141941984   -0.13227931035972   -0.90428695521644
H         3.38868052668682   -0.96129999167117    2.28358715683759
H         5.17959421824834   -1.39511813445969    2.23045902440286
H         3.53295147049255   -2.82681596272806    0.72278351192633
H         5.04604391246948   -2.26594001248405    0.02942492681781
