36
 energy: -47.846786354999 gnorm: 0.149786475771 xtb: 6.4.1 (79825abcba525fcdf90b791dcacef51065a7a4e7)
C         1.74300531316350   -0.18230515530162    0.38541610482717
C         3.17148843525347    0.04767662973623   -0.16001307487863
C         3.35030524237788    1.51843025179662   -0.48811675706991
C         4.05757058712847    1.81380916772700    0.90526656322478
N         3.29189161772599    2.58575763281696    1.87601070674763
C         4.03082980076402    3.84175718331453    2.19842766603992
C         4.25385355178576    3.85803307791165    3.74735280654351
N         4.80554660444873    2.63505306360271    4.35122396228642
C         5.37018007043883    3.67387238291422    1.51844175276669
C         5.31659851949566    2.52021552398926    0.86755279265201
C         6.38565161952237    1.70455600904288    0.28806321092973
C         5.78484559139775    0.27802403614434    0.25810271840463
C         4.36114071638712    0.32452590261620    0.99709125564562
C         4.24123787969455   -1.03560568997629    1.68558399048263
C         4.05830249027838   -1.93456813523645    0.45209576132277
O         3.70292620848573   -1.16247870928081   -0.72128362555040
H         1.65702471609658   -1.15455671343332    0.88262366654422
H         1.12290511100670   -0.25985128743834   -0.50886007987676
H         1.43193098204457    0.70766706844001    0.95202177378834
H         2.45326491823319    2.08232409929203   -0.76587388416290
H         4.04695009015263    1.61941217766745   -1.33263825589680
H         2.27504711136436    2.61516851355042    1.76465710631094
H         3.55524386873208    4.78965146228047    1.93347262050051
H         3.30649645592170    3.97763826632812    4.28526734047962
H         4.92121518887971    4.70059515779006    3.97544119565176
H         5.74333837317058    2.42108857269959    4.00838406702205
H         4.13655950026044    1.88074245078733    4.18101925415127
H         6.12838799134012    4.43287310776585    1.62132203796207
H         7.27930619645388    1.81792658169485    0.91324625546162
H         6.61392611892779    2.11946506626216   -0.69914522072874
H         6.25099342831214   -0.41623591617611    0.97243010505030
H         5.79087772384736   -0.15286112308122   -0.74811575382466
H         3.31698294071530   -0.97436480341767    2.26664744446035
H         5.15268807502975   -1.21352053034768    2.27280207044430
H         3.31696815523673   -2.72126023620676    0.64476867905568
H         5.02502015488647   -2.36000711176798    0.17480590270609
