36
 energy: -47.840231197834 gnorm: 0.140723944125 xtb: 6.4.1 (79825abcba525fcdf90b791dcacef51065a7a4e7)
C         1.80990556931911   -0.07119792707186    0.47031707421700
C         3.13075566623716    0.12440394216365   -0.30945442711867
C         3.42494689691380    1.57957707462931   -0.62356653375036
C         4.08534003063330    1.81542783308175    0.80375456156917
N         3.34841187720085    2.42083054927378    1.90599653936450
C         4.05361592634316    3.66483640755453    2.33337686463172
C         3.97434170250720    3.68683951162835    3.89619646788981
N         4.98667149957763    2.98102407763218    4.69726993287604
C         5.38928484468699    3.48560075009499    1.64906079076477
C         5.38787475907323    2.43826491252305    0.83632631546149
C         6.41898824081754    1.69670088640525    0.10771734692441
C         5.84965869381374    0.25805252384067    0.16261525745395
C         4.37891735444929    0.32131990578451    0.80145738297795
C         4.13638351846971   -0.99141456615071    1.54728740516973
C         4.00962998157464   -1.90590255898466    0.31816685574598
O         3.45852739002088   -1.18133046377959   -0.80900429043813
H         1.56711683790821   -1.13660323561503    0.54677806491749
H         0.99099694022222    0.40208309271249   -0.07343038387245
H         1.86978423272965    0.46261405754281    1.43017076149780
H         2.50780006313961    2.16553498521663   -0.74726638297014
H         4.09619273558701    1.85544352267306   -1.44943256430073
H         2.35503938506354    2.54055728391828    1.69125482070515
H         3.63424037667242    4.62428115154553    2.01956692711962
H         2.96274458873097    3.37568854088122    4.18080019943326
H         4.14206429432560    4.68630997337579    4.32073700805159
H         5.92535610304729    3.29552655658921    4.44680474680462
H         4.89898076492881    1.96398603106070    4.75593715039012
H         6.29535244923593    4.02186922189391    1.87928539572384
H         7.36597483016935    1.79623827379024    0.65143966523300
H         6.49814276789413    2.06439585251424   -0.92056970560518
H         6.46963187730542   -0.31438178825350    0.86795668674487
H         5.88560567724155   -0.27586991442858   -0.79227148189999
H         3.22510607105980   -0.78649719459017    2.11580713497440
H         4.86515850493848   -1.24692302137897    2.32883887840619
H         3.39472954865143   -2.78559856664481    0.54971881234049
H         4.94681385965501   -2.37670074875516    0.01408383811326
