36
 energy: -47.838842969980 gnorm: 0.130142741186 xtb: 6.4.1 (79825abcba525fcdf90b791dcacef51065a7a4e7)
C         2.01793540090928   -0.68343453119468    0.69088834427925
C         3.18278256954267   -0.08187183739725   -0.12899094738416
C         3.05208965924822    1.42733121530452   -0.21826150639960
C         4.02977818633432    1.54367370425819    1.03056983010405
N         3.31125884327140    1.89922713617567    2.24787201076124
C         3.70139755457681    3.28750124643774    2.63258491817221
C         3.99391155577367    3.39487603258640    4.16623410085320
N         4.41289348939735    4.75924514866499    4.52352497653431
C         4.92996311576918    3.51559522782071    1.78227608767521
C         5.13761992022126    2.46941840505264    0.99497416636618
C         6.33505439492314    2.01160508372226    0.28748506055528
C         5.86520972147855    0.67170229339031   -0.32957692617294
C         4.65729467118425    0.21718202829899    0.62412881974974
C         4.89112235719784   -1.22226308859807    1.08421492347287
C         4.52558305740864   -1.95484328118701   -0.21686130366563
O         3.59802461957111   -1.15373405496762   -0.98957918791140
H         1.28132530904631   -1.09635490325673   -0.00681034377051
H         1.55461024592216    0.18544351917132    1.16062049838957
H         2.36571677296056   -1.42372533992713    1.42633203661895
H         2.08204807088484    1.87926198398934    0.01537179927704
H         3.36521241106290    1.82190983924116   -1.19549730868189
H         2.35588822606169    1.57718345237624    2.42334923033998
H         2.90051440703366    3.99017775014266    2.38821095295297
H         4.67943917015923    2.57772390008534    4.41814122571312
H         3.02072294172561    3.24746617369095    4.65457924840139
H         4.30090636948188    5.31229212027825    3.67242490593328
H         5.40267278443605    4.71411057579088    4.77610705434876
H         5.57632547788070    4.35310257365816    1.98804988259517
H         7.20500961583117    1.82040183078115    0.92697272325539
H         6.70755084497697    2.70686942281873   -0.47191810572227
H         6.65501478808122   -0.08982718448399   -0.40596494511095
H         5.58186307199820    0.89095937663882   -1.36389556090550
H         4.23952418363557   -1.55084164811086    1.89851729643205
H         5.92135318834232   -1.50428900700940    1.34171457292648
H         4.05319558906743   -2.93860884730521   -0.09586830283371
H         5.41823085077943   -2.12979993552207   -0.82101453065353
