36
 energy: -47.839824918439 gnorm: 0.145098936097 xtb: 6.4.1 (79825abcba525fcdf90b791dcacef51065a7a4e7)
C         1.92842439340329    0.03418103258496    0.87470113590165
C         3.13544377285324    0.09585032665270   -0.08979343065060
C         3.35436604884983    1.56403322296463   -0.40484222509418
C         4.19150212648875    1.71133302964500    0.93921733429186
N         3.44303533603934    2.37999487316246    1.99619496931412
C         4.05726030707241    3.70790215252481    2.29099522824843
C         4.06394128171936    3.92271449497402    3.84115155531382
N         4.23448625868146    2.72910768503342    4.68431400582974
C         5.39314076817401    3.57786700231923    1.59605668669888
C         5.43472447545449    2.44550260608771    0.90796272864127
C         6.39994957911361    1.79268693482239    0.02130868103689
C         5.81297173298172    0.37997125280565   -0.21649463195251
C         4.56568548675992    0.24353656440431    0.78393761854079
C         4.67164665775949   -1.17571573366312    1.34326939840768
C         4.04040471924613   -1.98024474430535    0.19550689180260
O         3.37010820850687   -1.14234532261641   -0.77807450176111
H         1.91171502870445   -0.97773342893366    1.29378470711698
H         1.02827478487091    0.19060389331415    0.27843765915590
H         1.86881177208698    0.75413164102601    1.70414507373033
H         2.50428458428826    2.25429284977446   -0.43148391188080
H         4.03034105959589    1.71259946462356   -1.25907510497043
H         2.44025329756868    2.50830734482742    1.83744518725740
H         3.60795081904014    4.59484642365752    1.83675127504708
H         3.08018561739429    4.32800981586326    4.10402684128595
H         4.81794083966679    4.67209173038081    4.11904570738581
H         4.82549289953458    2.02875889271922    4.23376309888354
H         3.33487895062568    2.30430616211304    4.92042467454596
H         6.22328334433289    4.24847785457949    1.74668905061345
H         7.35524247766057    1.71208246913182    0.55351506935565
H         6.52076404280010    2.29634659008202   -0.94335192844243
H         6.57210904325175   -0.29939319652204    0.19790710589864
H         5.63045635188818    0.18640800020149   -1.27828342410788
H         4.15361233959179   -1.17349525820559    2.30621691588196
H         5.65319500066792   -1.57127772865312    1.63875852577563
H         3.19862014359041   -2.59015139647163    0.54905536375059
H         4.79351328208892   -2.62998103444029   -0.25516070940448
