36
 energy: -47.840493987525 gnorm: 0.141249885014 xtb: 6.4.1 (79825abcba525fcdf90b791dcacef51065a7a4e7)
C         1.82347396955922    0.05882604139919    0.55796661794354
C         3.21518412336660    0.11522012457878   -0.11353261080330
C         3.45769944150628    1.53728077149799   -0.58435484568065
C         4.18542280145679    1.86995534836477    0.78995825753887
N         3.30342545457531    2.62603541344667    1.67026304791672
C         4.06635598550287    3.74903556834543    2.29020248012796
C         3.89050295113560    3.53339636175998    3.83025087239910
N         4.70076062046175    2.40469240938826    4.31420915037472
C         5.45900134034991    3.51119258197289    1.75317831073218
C         5.45503577209862    2.55683972124803    0.83304433578496
C         6.46582664032000    1.75695070014260    0.13844906605071
C         5.88494353832198    0.32203668006232    0.15979370356562
C         4.48997960058520    0.38669970151384    0.95042409137418
C         4.26970027429559   -0.91401365425353    1.72371490433750
C         3.97365078215396   -1.90738486848961    0.58852310697132
O         3.44744755306013   -1.22428111581529   -0.57582778865565
H         1.63162570068470    0.86339890205988    1.27611554148999
H         1.75964674636300   -0.94023565574132    0.99163627807648
H         1.11451536979729    0.22062857992618   -0.26729541960824
H         2.54517328991829    2.07982378455494   -0.85407645031657
H         4.04895862891196    1.75898633485790   -1.48434772684348
H         2.49852097676464    3.05422805111122    1.20548649855055
H         3.63298562970775    4.71078887365437    2.00365851772655
H         2.85394565279421    3.20184346898358    3.95972891582661
H         4.09045697592368    4.43224505087513    4.42974745779522
H         5.69512241139123    2.57285207317911    4.15377114063634
H         4.40343801565892    1.67569851100324    3.66177903705552
H         6.27022635134573    4.20259827026904    1.91260817418139
H         7.45544742257806    1.73925265259847    0.61032059308519
H         6.50069004802784    2.30213041639524   -0.81044654879994
H         6.68335457489532   -0.31855642841987    0.56195612134438
H         5.62159637401994   -0.09193286974471   -0.81870081222712
H         3.39549547011977   -0.88982087624700    2.38007843615396
H         5.15306111711324   -1.12938572243798    2.34056881937027
H         3.19836537478183   -2.61010879405354    0.92123250168298
H         4.78424059131178   -2.45296866183121    0.10096436277250
