36
 energy: -47.842832335383 gnorm: 0.140995419972 xtb: 6.4.1 (79825abcba525fcdf90b791dcacef51065a7a4e7)
C         1.82207343219562   -0.08434790310121    0.33413911813195
C         3.25028691162525    0.08583021283767   -0.23348251149370
C         3.32445564686385    1.58528498233126   -0.45456646176745
C         4.05968241082031    1.71763957293924    0.94932598630206
N         3.36546848622225    2.40418434771461    2.03156264404961
C         3.98778557686739    3.73448837622181    2.29713724328063
C         4.16582925978854    4.00310481980897    3.82858076339379
N         4.89137850524870    2.94296150558680    4.54578377790713
C         5.29773727652556    3.58973489695229    1.55720597386510
C         5.32705203999644    2.40998525823341    0.95323326006972
C         6.31005619601075    1.70856577297417    0.12516519841662
C         5.93600952083789    0.23603423487703    0.42282096171728
C         4.42446601721775    0.23935328068140    0.96173404661665
C         4.12471309515170   -1.15490324789278    1.51359795832135
C         3.97938634997158   -1.99512596678191    0.23453658577914
O         3.70002204964549   -1.11416666692527   -0.88130384937038
H         1.80861667277971    0.45220339362378    1.28902798117172
H         1.49134806469304   -1.10496260203097    0.53221468550882
H         1.09797220766603    0.38245569913734   -0.34969682758583
H         2.37194576765513    2.09433191485486   -0.63733074266887
H         4.08321353449919    1.90788967041419   -1.18184951109648
H         2.34929939658394    2.51826531380842    1.99127232166942
H         3.34425369532645    4.56533003755609    1.99637891469229
H         3.13262717264915    4.02440109103285    4.19352299482894
H         4.66811125987277    4.97619669474654    3.91864587830156
H         5.89212651388510    2.82595009958735    4.37969598793455
H         4.52936002850572    1.99981123640723    4.38796083245767
H         6.09009039452422    4.32020392152622    1.56892135443422
H         7.34995957206197    1.91992132171163    0.40130835023520
H         6.23586416340832    1.92432650357388   -0.94571393531788
H         6.66919493191149   -0.18477882598584    1.12631924834007
H         6.12965727700873   -0.30375665888879   -0.50954182689192
H         3.18189984833608   -1.25147005466992    2.05895145883304
H         4.95389414017799   -1.48533180219000    2.15429758593590
H         3.08146385636257   -2.62700729908531    0.24125175636024
H         4.86438516223081   -2.61843306818071    0.09067415989281
