36
 energy: -47.841159731065 gnorm: 0.141449407544 xtb: 6.4.1 (79825abcba525fcdf90b791dcacef51065a7a4e7)
C         1.75417158594389    0.09079475476248    0.55470176346077
C         3.16078485908950    0.14451092944108   -0.08522192636783
C         3.35173261068841    1.59846000547246   -0.47549716630994
C         4.17320526242019    1.82184600587427    0.86773457859294
N         3.34046024754652    2.53300947678741    1.82965721190987
C         4.03247455528758    3.78003055198353    2.26962525043901
C         4.11297005993290    3.62553050854736    3.82488208261312
N         4.51095975082914    2.28196207274016    4.27336149470919
C         5.37520917002730    3.64712236997023    1.58857863493666
C         5.43484015264335    2.52435496522409    0.88623317741765
C         6.49168490188611    1.76682155531780    0.21302776187974
C         5.85410722925823    0.36555478096373    0.04930497449513
C         4.50178797180283    0.33572419353144    0.91275436454374
C         4.42459230965968   -1.00321052812972    1.64736413279711
C         4.00876436887938   -1.88239890899379    0.45689910383665
O         3.55114862872373   -1.10445527600027   -0.67651393462402
H         1.65631125270083   -0.85424891578357    1.09985948112491
H         0.93085534181979    0.14563613325248   -0.15902812224703
H         1.67918824100739    0.93439266476676    1.25654209622686
H         2.39847971307201    2.13762232408539   -0.45501464695912
H         3.96795563554891    1.86844900764219   -1.34503904496733
H         2.37264971826520    2.77270501166632    1.59916593735748
H         3.51294039244123    4.69698575705739    1.97951469684594
H         3.11907362225290    3.72735858821677    4.27537495880968
H         4.87011898390650    4.35798720179635    4.13719511212952
H         5.28601557228890    1.79850941766905    3.81692376178696
H         3.69638911137009    1.67069970490048    4.18208783864027
H         6.05969885662533    4.47758819283598    1.64642421143439
H         7.38172845961203    1.59351993622332    0.82956183336654
H         6.94343070426731    2.08377631387885   -0.73264908651380
H         6.55464244099059   -0.37148046680441    0.46833215354167
H         5.65182447262504    0.14941834496116   -1.00451700284012
H         3.74274768361571   -1.10920822005825    2.49558863622118
H         5.42272577341849   -1.16869732036495    2.07580777809335
H         3.21713470749189   -2.59905525175407    0.71245747638607
H         4.87435484187863   -2.37222954676426    0.00606641297184
