36
 energy: -47.843568821545 gnorm: 0.132697350293 xtb: 6.4.1 (79825abcba525fcdf90b791dcacef51065a7a4e7)
C         1.80432580310445   -0.08719157443659    0.54341176647357
C         3.17012334823692    0.12758005168277   -0.14898899656411
C         3.41073652087901    1.60333027733333   -0.40785235479147
C         4.17119433440416    1.72611363583900    0.98341257250157
N         3.31429236551676    2.37978745252136    1.96470873764790
C         4.01514846907379    3.66135236987607    2.27115481674594
C         3.96079098717058    3.91053892147747    3.81521596349765
N         4.68702377877511    2.92903036747107    4.63614992701205
C         5.34318939599395    3.55549219651415    1.55734386104983
C         5.43866770963483    2.41233300740693    0.89287238495171
C         6.49560667303576    1.68286178430914    0.18949857956199
C         5.86064402534589    0.28075325910028    0.02284622598809
C         4.50078887275899    0.24355955313831    0.87408796928559
C         4.38137555378578   -1.13463702072216    1.52575601681965
C         3.82633267779159   -1.93348311140295    0.33543491504102
O         3.54183742393236   -1.09214477405738   -0.80931213194548
H         1.26778059988988    0.85608702852580    0.69249506834792
H         1.99492686365771   -0.51816557283813    1.52738341280442
H         1.15644554599032   -0.68307708196296   -0.11615734395558
H         2.53664404398307    2.22165668197088   -0.63902624422686
H         4.17768316829363    1.77018938460971   -1.17770869562362
H         2.34472164416442    2.43682512316991    1.64234769331204
H         3.57382255143139    4.54557873702611    1.80396981537417
H         2.89131402795913    3.94094061031110    4.05278209300863
H         4.43224966821550    4.89250923831714    3.95932604670039
H         5.67198163066884    3.14414731526224    4.47380423825808
H         4.52690462772448    1.97079978133943    4.31731786394191
H         6.10093145235237    4.32113244653925    1.52317394316937
H         7.32473812755230    1.60731703412945    0.90305249928958
H         6.76822242752149    2.13675611184847   -0.76888536568595
H         6.55954773487238   -0.50074633420275    0.35503029222820
H         5.66439558105657   -0.03750397314190   -1.00592627446273
H         3.80446903754523   -1.07076361874282    2.45243362631451
H         5.38825660727998   -1.43243093069247    1.84937541413339
H         2.93479634493154   -2.52792992040366    0.57497583557917
H         4.62378978186766   -2.61045202549135    0.02205611217060
