36
 energy: -47.846790087154 gnorm: 0.120052497272 xtb: 6.4.1 (79825abcba525fcdf90b791dcacef51065a7a4e7)
C         1.72670263140107   -0.00952894601364    0.38294728377271
C         3.17850359923839    0.06256692104758   -0.14433327442926
C         3.40784273575757    1.49660797894198   -0.58441681992070
C         4.03224215425060    1.85799949352308    0.83280288909536
N         3.21021163607657    2.60959819489495    1.77295081879819
C         3.98806141212490    3.78951019367752    2.25282022942121
C         4.19758423525513    3.59311187621940    3.79122898492568
N         5.00907392507481    2.38555643679536    4.01031815368696
C         5.31218836615783    3.67242814700862    1.53351157643514
C         5.28467953152865    2.57569738264074    0.78928274684809
C         6.34481998868970    1.80050689822208    0.14185309429345
C         5.89647212519323    0.35266994183789    0.45746576972506
C         4.38186007813578    0.38402155356259    0.98677620006654
C         4.12073354700677   -0.87196515646772    1.81904250001168
C         3.98818945054802   -1.87919250543878    0.66534531154198
O         3.67822677340471   -1.21046813593983   -0.58203772220806
H         1.47762767929556   -1.07412244051383    0.44990606606041
H         1.00034787503160    0.45150841930977   -0.28796320081802
H         1.72631963189437    0.21153056167817    1.46044082651172
H         2.51763582755512    2.04299369639678   -0.91426670015342
H         4.25575845745534    1.51274189471112   -1.28406428694900
H         2.34260682491147    2.86022044237545    1.29161125658384
H         3.47507189755978    4.73757488168959    2.07143158940121
H         3.21924984909597    3.33100047703928    4.20992023442412
H         4.50530209754422    4.51009627916947    4.31253125566805
H         5.99851294675178    2.45943806093242    3.76881178100454
H         4.63805782113998    1.67054801784798    3.38055002125034
H         6.12893304452100    4.36765362144329    1.63903600169599
H         7.28943060744424    1.97440986259012    0.67080846588857
H         6.49773307723636    2.09568925306206   -0.90137471105819
H         6.53170141554700   -0.01443470415803    1.27677782669304
H         6.01236459413874   -0.33955208298956   -0.38251735199429
H         3.23292352358552   -0.89965554193429    2.45674072252970
H         5.01694635061299   -1.17652200661458    2.37695646289156
H         3.18430632097858   -2.61320151221648    0.80882565011641
H         4.94252293499863   -2.40299809848077    0.57986819677474
