36
 energy: -47.845370750305 gnorm: 0.123897043512 xtb: 6.4.1 (79825abcba525fcdf90b791dcacef51065a7a4e7)
C         1.75333135840948   -0.03591403102394    0.43989912800955
C         3.18508170660095    0.08299292954970   -0.13185316432257
C         3.44822253526502    1.52972651874355   -0.50663643131245
C         4.06553877523814    1.76769739125402    0.93948957673081
N         3.39368915585991    2.48600327135928    2.01520670607625
C         4.07134602554940    3.79552894460173    2.24637932978275
C         4.27952524408045    3.98215808473019    3.78618596510527
N         4.59743829968774    2.69723144491710    4.42852583117971
C         5.33722329225004    3.61915225915709    1.43961345947367
C         5.32192147038923    2.46384788359377    0.78962189773415
C         6.33584617523463    1.70217265241320    0.05764479066874
C         5.83903006301520    0.26176184993007    0.33196097676144
C         4.39131409138645    0.28267761170114    1.02397464730959
C         4.25521957619989   -1.09865894766676    1.66564759010015
C         4.17053048360010   -1.91738483437872    0.36733804336057
O         3.59044980161803   -1.16089794953272   -0.72374744552532
H         1.67896688408642   -1.04273553634095    0.86494205900079
H         0.96741417008109   -0.01569609746267   -0.31653524524848
H         1.59557702039102    0.67057865653724    1.26805456624643
H         2.53374997985213    2.08478683317864   -0.74212434425176
H         4.22170920880300    1.53772077015790   -1.28790613967961
H         2.37971412176718    2.54508333068910    1.89030076560472
H         3.45253837208620    4.64792318387740    1.95416742024518
H         3.30853947749222    4.19861041571719    4.24605325421059
H         5.01315134900864    4.74966987717892    4.06907302496799
H         5.34700507269461    2.27063965661976    3.88176949348157
H         3.75942617185605    2.15334366472181    4.21076531830060
H         6.10967302322352    4.36838394119145    1.49893372592001
H         7.25093177200583    1.91554210472078    0.62281468169609
H         6.30795976763283    1.95937006437085   -1.00626828802811
H         6.58430838943835   -0.21605578295907    0.98449817350650
H         5.75873804509781   -0.19217896136685   -0.66084560808607
H         3.32032448284959   -1.07907090897551    2.23241015885532
H         5.02176697217743   -1.49248344487059    2.34721014874806
H         3.55757568978016   -2.82142674465956    0.47949213730610
H         5.18996557261213   -2.22688519948386    0.12777042979879
