36
 energy: -47.844403110427 gnorm: 0.137752387545 xtb: 6.4.1 (79825abcba525fcdf90b791dcacef51065a7a4e7)
C         1.76895421813797    0.03246183723812    0.55448407529410
C         3.16619317682528    0.09534157645908   -0.10484747530564
C         3.48881130759849    1.51490002749880   -0.53323406608391
C         4.13400295562427    1.78533106858107    0.89490631239884
N         3.23275869582618    2.46991365000029    1.81339331691022
C         3.86242962766010    3.78074892416040    2.14916502854193
C         4.12325030727994    3.71890458835548    3.69102152434858
N         4.94332955794799    2.62743326916002    4.23953415238851
C         5.24837766672756    3.70562741965353    1.55089241182861
C         5.36743696212303    2.53512548419070    0.93998998941852
C         6.39039708521044    1.70576886500519    0.29990918796060
C         5.89397094645900    0.24082911198422    0.23379077061013
C         4.45983548576733    0.29899856076474    0.95147726515724
C         4.24415767067975   -0.98632731587576    1.75133809741869
C         4.06470717101772   -1.86615478616082    0.50362290263283
O         3.60263934386984   -1.15105455578556   -0.66870749460437
H         1.34412523167579   -0.92591720381594    0.87214910451520
H         1.06496511203154    0.36992194094916   -0.20761013200486
H         1.68597885537889    0.60592210472472    1.48942696225006
H         2.57247991176860    2.03288355728843   -0.83627939684640
H         4.24785489346460    1.59131197290847   -1.32490445667040
H         2.35763705934494    2.54623363931048    1.28844115944149
H         3.19733047707258    4.59630931910991    1.85354518131156
H         3.13675820090546    3.78988103991193    4.16318525189589
H         4.65535886299393    4.62151715161226    4.02186555952660
H         5.75927759436938    2.51887562632319    3.63520192655937
H         4.51157639976413    1.70338526602369    4.16726805730589
H         5.98657603006797    4.45873888062099    1.77322558940501
H         7.40386556712733    1.76854699532371    0.71375192127756
H         6.48314891168277    2.03435288867115   -0.74041235848726
H         6.49221595456234   -0.47613457145887    0.81484181045246
H         5.70707724035600   -0.16186248767183   -0.76675121170969
H         3.34967898161667   -0.92288296013774    2.37704976823593
H         5.03956588392623   -1.28221043526768    2.44919138842011
H         3.36035997896042   -2.70524342785327    0.57717016573667
H         5.03224240210465   -2.26485914731067    0.19162699934778
