36
 energy: -47.841009435385 gnorm: 0.124446911272 xtb: 6.4.1 (79825abcba525fcdf90b791dcacef51065a7a4e7)
C         1.88545318734816    0.21669723200632    0.61609838590157
C         3.20535431527689    0.13620355397491   -0.18535681900103
C         3.50218852553561    1.55746461644717   -0.62654859231629
C         4.17265308128312    1.78338046894449    0.79768084048995
N         3.33550488522284    2.32371672736551    1.86151003185443
C         3.97166375229177    3.57223309204881    2.37534467771390
C         4.01752186097385    3.62626314252572    3.93872288669955
N         4.56224083945671    2.39794264075245    4.53806895360236
C         5.29805875075949    3.56943034881031    1.65071110776646
C         5.37644198320375    2.58073072480914    0.77106300092542
C         6.46014236155164    1.87903956871002    0.08026182541558
C         6.03208848656080    0.39126936367821    0.06727186369168
C         4.58589936280504    0.31836198928296    0.75895363126561
C         4.36079597959219   -0.94798934364168    1.58602052810793
C         3.80108509829401   -1.91196040760876    0.52744809402102
O         3.40033039433204   -1.20137199317127   -0.66992125367113
H         1.25822314504383   -0.68117367455482    0.63316981798541
H         1.23606028177900    0.88543063648370    0.04921916404952
H         2.06734788174235    0.55795733976769    1.64581468193563
H         2.68191284032404    2.16391136210294   -1.02551825623734
H         4.28651012450379    1.69606992755469   -1.38441148130075
H         2.45865417118968    2.61819856603602    1.42373079412078
H         3.37380749768591    4.46086271909286    2.15673081154362
H         2.99251619303178    3.72883992074904    4.31286765931301
H         4.59152224938027    4.45681036808941    4.37233746424911
H         5.46785858996480    2.39949413160962    4.06623478695821
H         4.10530941881302    1.60686070839040    4.07882942629850
H         6.01338724742107    4.36742688008487    1.76495829911973
H         7.43084487893929    1.88022079658792    0.59022308797810
H         6.70577002075070    2.24759784730634   -0.92107285745996
H         6.69210507445092   -0.30836662710921    0.60060282954734
H         5.96532819565126    0.03609659934982   -0.96596064431204
H         3.64751157091660   -0.79107105594614    2.39979839449403
H         5.33020409681498   -1.38889971835321    1.85632812401635
H         2.95249934847261   -2.47397458343546    0.93930512018967
H         4.54287912951925   -2.67599316626482    0.28573214752517
