36
 energy: -47.845869812291 gnorm: 0.130930299506 xtb: 6.4.1 (79825abcba525fcdf90b791dcacef51065a7a4e7)
C         1.71683504754338    0.01186804927216    0.40259091614157
C         3.13165262699549    0.16430811967435   -0.20238999978013
C         3.39168033364136    1.65103532083118   -0.35977983085901
C         4.17783239932966    1.68977977926436    1.02205009748191
N         3.42441705116738    2.24093386849998    2.14147288473595
C         3.91394733904314    3.64516733946284    2.26798645395773
C         4.01682619205812    3.98214598802777    3.79279297451461
N         4.89521936965998    3.03539308712367    4.49762634800952
C         5.30970428019888    3.53684438744963    1.69829003425158
C         5.43630197816664    2.39812325603507    1.03140260535653
C         6.52164651066575    1.58916242498818    0.47319759040488
C         5.85117286931732    0.26170406764575    0.04287396512703
C         4.45628046323049    0.20460797796747    0.83421289811252
C         4.31529682016015   -1.20461060536478    1.41091339984735
C         3.93938021362526   -1.91062876225425    0.09816165845975
O         3.40636201837259   -1.04183342232687   -0.93155667200107
H         1.39132871654755   -1.02974084458130    0.49734145909101
H         0.93456576212176    0.44685327879684   -0.22119605198882
H         1.82215600744193    0.41968320320307    1.41868839432984
H         2.43602254255827    2.18113251600620   -0.43408855895419
H         3.94612879481758    1.96320729405149   -1.25636419980697
H         2.40152267075674    2.26860157501313    2.15408168427043
H         3.23899996029941    4.33572731352970    1.75567826475941
H         2.99483226979109    3.85851120864096    4.16880597747102
H         4.34210352399634    5.01496325655412    3.97931341901841
H         5.87784338204829    3.30755719278979    4.44150016613887
H         4.81113417128288    2.11890790222940    4.05211262902034
H         6.02443367372836    4.25166171365694    2.07211326434346
H         7.31131093053775    1.36366872150195    1.19977032724601
H         7.05557446980851    2.08332935688906   -0.34506841902577
H         6.50386387229916   -0.61313702104826    0.17778819007716
H         5.64160432082314    0.34931218079791   -1.02791073458659
H         3.64916335691318   -1.41753728895000    2.25148514081862
H         5.33835990594598   -1.40367103590778    1.75867353521504
H         3.18476934110010   -2.69145685488959    0.26080801244267
H         4.86677052445071   -2.34480296694570   -0.28114165782193
