36
 energy: -47.843772815714 gnorm: 0.133224710353 xtb: 6.4.1 (79825abcba525fcdf90b791dcacef51065a7a4e7)
C         1.81195219881538   -0.10808671819566    0.42442465980598
C         3.23212319107169    0.14255809210089   -0.13346439051343
C         3.38782396528785    1.60475879548020   -0.50825780583468
C         4.15221406104142    1.84101232978001    0.86610830487379
N         3.32288136999894    2.51049679873277    1.86034707776428
C         4.05739087231205    3.74120826952639    2.27671507381910
C         4.24831545120910    3.74242192934565    3.83000832990885
N         4.49383901417060    2.38495745256059    4.34158832714292
C         5.39262886772420    3.65337589013733    1.57397024561440
C         5.38610521717568    2.58714448302111    0.78621414400302
C         6.43864526321861    1.80323220725020    0.13688816633750
C         5.95418138765107    0.34465687444495    0.32319912221877
C         4.48498770658701    0.35867660542725    0.96854823751805
C         4.21468385206512   -0.98279463972636    1.65100528145647
C         3.89794645446542   -1.90518572708173    0.46274428875275
O         3.66683796955739   -1.09562879958087   -0.71642492284867
H         1.47561139746452    0.48857217372340    1.27926625689682
H         1.80868997393824   -1.08812836512303    0.90377348073742
H         1.00723573586853   -0.06892932818010   -0.32441304210180
H         2.50298687058775    2.24926339095741   -0.54677758668325
H         3.98316073515627    1.77740017686280   -1.41627600351465
H         2.36096114182564    2.70107557601360    1.56772684364425
H         3.56870282062092    4.65157627851826    1.91992269622866
H         3.39697211698158    4.24688223872564    4.30104680270462
H         5.10831139025777    4.36140873535591    4.12081591265004
H         5.25811584760509    1.95235079734975    3.82052614007542
H         3.70843815623964    1.75606796965876    4.15954053021651
H         6.04993885981204    4.50660854836137    1.61248433503654
H         7.47396292656865    1.92021753359340    0.47858544196447
H         6.49542746392861    1.91224478967693   -0.95110600670542
H         6.51965226456819   -0.11451421406036    1.14718875563581
H         6.00595783225401   -0.21363769781159   -0.61690747162203
H         3.40288417682281   -0.94385094393762    2.38250859084666
H         5.08087694310003   -1.41184704567464    2.17334982568827
H         3.03952573768440   -2.58575047161674    0.53710437440443
H         4.80164593181381   -2.49794284433063    0.30654796137574
