36
 energy: -47.840882486778 gnorm: 0.153018027830 xtb: 6.4.1 (79825abcba525fcdf90b791dcacef51065a7a4e7)
C         1.75836523643406    0.19502612842465    0.30586097112923
C         3.20514213032896    0.25683039055434   -0.23632483562745
C         3.41674942408941    1.71157429563293   -0.61273709222185
C         4.07825373074676    1.95186899395850    0.81332765971786
N         3.27920716648918    2.50948893196243    1.89734680845905
C         4.07123753410972    3.57150277468551    2.58461077892285
C         4.29581437804495    3.24576705391874    4.09875578954195
N         4.89893355195042    1.91350394754110    4.26008775599103
C         5.39239739911336    3.50790512449488    1.85323037121390
C         5.33015682283982    2.67169591664095    0.82642370149635
C         6.31636756051083    1.91586794547425    0.05176526066897
C         5.79630544985635    0.45978629736663    0.13063638125602
C         4.40274781200433    0.46846544697660    0.92632718414169
C         4.17071847799751   -0.87210275452478    1.62446481091217
C         4.01140869092541   -1.78541156043476    0.39825949559602
O         3.58545687562596   -1.02526541233140   -0.75931402090744
H         1.34407744691664    1.15124051122730    0.64335287275990
H         1.51522735068294   -0.54251236632329    1.07214321749421
H         1.16274898893740   -0.18580272617167   -0.53679580546268
H         2.44492726935294    2.20701411312833   -0.71227455764816
H         4.05677292217012    2.02667545638184   -1.44928304297410
H         2.25899926210144    2.51668781749077    1.97710537286449
H         3.67326630215264    4.57905327808216    2.43850251650903
H         3.36181268043741    3.24543555031703    4.67215237644530
H         5.06750321526534    3.94305077766281    4.45315455255893
H         5.68516980500746    1.89614221867041    3.60870113973078
H         4.23018940805444    1.18294833976752    4.00598607386578
H         6.24804936898696    4.08114200017568    2.17072830155713
H         7.38251645083999    2.04592105205649    0.27253210772573
H         6.30661927651192    2.26433492599681   -0.98617260640445
H         6.40329264570187   -0.19976191666568    0.76790948758400
H         5.63861552391231    0.10054279433469   -0.89125011977995
H         3.31442997281897   -0.92859775227295    2.30211568609651
H         5.00746992682004   -1.07872349570047    2.30591555944444
H         3.24505620789103   -2.55945260490611    0.53663666992308
H         5.00336063071789   -2.20197721701697    0.21134927187224
