36
 energy: -47.826680077879 gnorm: 0.140665653929 xtb: 6.4.1 (79825abcba525fcdf90b791dcacef51065a7a4e7)
C         2.04715386865675   -0.40611295097966    0.76791310486532
C         3.25344539348012   -0.08777021376118   -0.14557871885273
C         3.19136037359603    1.40173449246235   -0.42888933519991
C         4.08584014260483    1.70014881362913    0.85167498221816
N         3.39686285507193    2.06611974660351    2.08288920460260
C         4.10971408815241    3.24951648372640    2.64763031434281
C         4.18744284787328    3.08330350610299    4.20181984956348
N         3.87611413626761    4.39857496627222    4.78306088470397
C         5.28936025076089    3.40867858008728    1.71621864516949
C         5.15300730976858    2.64941938843851    0.63807905608830
C         5.96502155341991    2.15768447791754   -0.47673610472299
C         5.80797229006339    0.62268962121150   -0.35030301968375
C         4.65049380475677    0.29303047807179    0.71119143881842
C         4.92864832266016   -1.07889589613632    1.32666276022439
C         4.41702426772759   -1.99528738050132    0.20347108052099
O         3.68757909737161   -1.27756968569475   -0.82221144042823
H         1.12782566006094   -0.05838666089917    0.28438110747775
H         2.18311650819007    0.03667159622194    1.75570031305322
H         1.94946678169908   -1.50154305776199    0.74920744248594
H         2.17535452514805    1.79770727260687   -0.32523461660468
H         3.63755522846575    1.55036293799604   -1.42264367921721
H         2.40856905136234    2.29268723158124    2.22138084771112
H         3.48330230343907    4.14476758567656    2.61568560272585
H         5.11027997947709    2.65936389874683    4.61387538708655
H         3.36638571248233    2.41698433462561    4.50046793137818
H         4.57446340051878    4.79904577098067    5.41131627889527
H         2.90806134035084    4.47363555103397    5.10358792483751
H         6.05617287424893    4.16596559361171    1.70844075847027
H         6.99400604672521    2.53601101698633   -0.45710988124734
H         5.59144975502337    2.44395378063689   -1.46533777977803
H         6.74950593239278    0.16265461608257   -0.01648194754409
H         5.61614159947611    0.14119637178829   -1.31442918757623
H         4.51277060905579   -1.24054138307000    2.32493570547533
H         6.00492827414940   -1.28397103259311    1.40903935349454
H         3.84249651146634   -2.85566928255932    0.57122746424659
H         5.29465244871560   -2.36964892319142   -0.32761577460851
