36
 energy: -47.842768449175 gnorm: 0.127583139015 xtb: 6.4.1 (79825abcba525fcdf90b791dcacef51065a7a4e7)
C         1.82876839396712    0.11212361112654    0.45302088172958
C         3.23276864628918    0.09623108347486   -0.19465134919368
C         3.54514253227799    1.49039383937988   -0.70599901483415
C         4.02872189617782    1.80373861342618    0.77621418514940
N         3.25141336455576    2.43481763719183    1.83547963910190
C         3.97202678866088    3.64396343327954    2.33166492733389
C         4.16860272926080    3.71014912067772    3.88284217232623
N         4.72592497252477    2.53158953692135    4.56482083940338
C         5.30187086285475    3.52233806256874    1.62374743813460
C         5.28741384253239    2.51167415714782    0.76595908912949
C         6.35399114941973    1.83843336477434    0.02222348843895
C         5.91149902205746    0.36347584863609    0.18209823437426
C         4.47911665444424    0.35495880775238    0.90556911949307
C         4.30008695747679   -0.94804266351659    1.68562815498557
C         3.93442451570423   -1.93215764178231    0.56272981669783
O         3.55304556138682   -1.22900673769710   -0.64531092940142
H         1.90478801140117    0.64829388444698    1.40518870589958
H         1.47336082341054   -0.91572998650722    0.53944999698774
H         1.10798498848916    0.65620086897019   -0.17492099150396
H         2.68813183168643    2.00561898398979   -1.15308096081369
H         4.50902178305710    1.57719729623614   -1.22765968427149
H         2.32477302374163    2.70184542944031    1.49303086953659
H         3.45468787132251    4.56646913611514    2.05556652897215
H         3.25362099153562    4.02168855750824    4.39946049342250
H         4.87368797092245    4.54666496260370    3.98483606155538
H         5.66652419860395    2.21094280056829    4.32980561200193
H         4.11100935943801    1.77702177426537    4.25176467236170
H         6.04013926209623    4.30358563635621    1.70221780115629
H         7.28691165357559    2.05880789187184    0.55459513917803
H         6.44461037202217    2.26681386935964   -0.98132895139250
H         6.56832758892685   -0.23443778476792    0.83065801288628
H         5.75486492226854   -0.10560725389538   -0.79442661412176
H         3.41686682433937   -0.91745057765304    2.32953704025712
H         5.10384806826877   -1.32144525070302    2.33505771564568
H         3.16428022044677   -2.63006414080768    0.91683174347050
H         4.73887703792613   -2.56452846970073    0.18142378690504
