36
 energy: -47.840860605866 gnorm: 0.140126013509 xtb: 6.4.1 (79825abcba525fcdf90b791dcacef51065a7a4e7)
C         1.76519318513218    0.09457162219792    0.46398105711261
C         3.20895991822475    0.14528095046155   -0.08730366020326
C         3.46217108581374    1.55901649147236   -0.57718084124109
C         4.07905125749609    1.89834406199246    0.84875948428482
N         3.27015605731806    2.64239571710437    1.80614582552578
C         4.01119284029463    3.77962386118132    2.42670516058323
C         4.22085411199580    3.41239866540135    3.93347701210160
N         4.73809365024173    2.03825816974178    4.02785325405771
C         5.33212782201030    3.68456674745016    1.69833694909762
C         5.33198884006906    2.61318356277692    0.91757469920463
C         6.30127977812933    1.85662745952927    0.12253938159390
C         5.87588347509997    0.37160558014562    0.22552978194582
C         4.46729031398874    0.43296473861763    0.99188639962688
C         4.23893913509835   -0.88709636355074    1.72921354287549
C         4.06271148004545   -1.84188064123734    0.53739859275926
O         3.55317151709654   -1.14134286609097   -0.62400117971784
H         1.57050382310072   -0.72134241683951    1.16843932768681
H         1.08557314339687    0.06331710894804   -0.38890071499956
H         1.71386114758769    1.09408688833126    0.92026390979044
H         2.66809974376926    2.15692751799309   -1.03735444942272
H         4.25210885172102    1.62156946525065   -1.33929199297882
H         2.32185271627723    2.79577209842357    1.45339398264177
H         3.41329946778801    4.69468036761252    2.43575172471280
H         3.23316514314523    3.48958885421625    4.40215077217762
H         4.92034258007345    4.11240974434701    4.41097790629809
H         5.58491054020669    1.74148926526308    3.54040810629409
H         4.00984356808469    1.44710835211257    3.62080092393529
H         6.19132678447513    4.33498143137016    1.68149644223324
H         7.34926948995445    2.04740458903327    0.38262956801147
H         6.26013059974318    2.20014938540620   -0.91627663042496
H         6.59936777746822   -0.16191302670491    0.85915639193032
H         5.76408629699085   -0.15718506611199   -0.72633989499502
H         3.29566459523556   -0.93165254708884    2.28046693558969
H         5.03977380302343   -1.28453336917064    2.36790589996731
H         3.41884160457999   -2.71087249021581    0.72678884742984
H         5.04588651459919   -2.18738825465860    0.21117416266962
