36
 energy: -47.843680051842 gnorm: 0.131890102277 xtb: 6.4.1 (79825abcba525fcdf90b791dcacef51065a7a4e7)
C         1.76033888241950    0.14023824380423    0.36120107049475
C         3.16578432188750    0.29422764507005   -0.26486517444394
C         3.41121502647295    1.78102819619189   -0.44355901460862
C         4.16365782749807    1.73561947648179    0.95671161412987
N         3.42860518152897    2.24007129083678    2.10985457200905
C         4.05674758521537    3.53699102361378    2.49838190714586
C         4.05630974435846    3.72017408348883    4.05260755029673
N         4.91281050930725    2.82504655203393    4.84624402531521
C         5.41658801244805    3.37100697966668    1.85986129721082
C         5.44684220660869    2.39819926701652    0.95976055833646
C         6.40444554739419    1.72460847773153    0.08041173261882
C         5.83953402091481    0.28618711102179   -0.01274333767954
C         4.46105485189263    0.24968573008174    0.80802749966421
C         4.31914209600360   -1.19013112013430    1.30314855060558
C         3.83533709284276   -1.86689322262338    0.01047002882316
O         3.42840797119499   -0.91120712695474   -0.99963209830261
H         1.73491923274804   -0.03195066822736    1.44267502303722
H         1.18155944950213   -0.67095278500355   -0.08292843617026
H         1.20656843265510    1.07551739071145    0.19252691871447
H         2.51893338316659    2.39179274363316   -0.26861128003635
H         3.96258924130143    2.19393327927361   -1.30042759335677
H         2.41116311185762    2.27098327140264    2.00452925364697
H         3.46860701037183    4.37452820853616    2.11431312730960
H         3.03026968267099    3.66338214308574    4.43360542580412
H         4.37418599089128    4.75843557317479    4.22075776823919
H         5.84052076144501    2.61118693037971    4.47693230081339
H         4.40078777583180    1.94394383880883    4.76264607514088
H         6.21334937900212    4.03831946460965    2.14518749896459
H         7.38049691728710    1.69427831364807    0.57913912184330
H         6.51519942088684    2.29282110513875   -0.84894676831984
H         6.51609222208413   -0.45939062695026    0.42990450270309
H         5.59410948965219    0.03806290801701   -1.05022835881525
H         3.63459383054330   -1.38911392962706    2.13226363712225
H         5.25949164492641   -1.66605908456174    1.61372135268738
H         3.10295750518305   -2.66965981017989    0.16785437221703
H         4.78590356563867   -2.26492440487830   -0.35067478083932
