36
 energy: -47.839793106302 gnorm: 0.144282936187 xtb: 6.4.1 (79825abcba525fcdf90b791dcacef51065a7a4e7)
C         1.72065591531818    0.09513575110131    0.42164998778213
C         3.16285921553509    0.11047571586079   -0.13581120743725
C         3.42788523114952    1.50304137091397   -0.67735145384091
C         4.14398019320343    1.86145025769609    0.69659951011783
N         3.28961033765584    2.51696216480561    1.67887705771857
C         3.94904864539932    3.70371278317249    2.29878135960106
C         4.04503917137545    3.60005003977030    3.85737478900467
N         4.95935709694513    2.56666490496093    4.36810330862797
C         5.28948168479787    3.66435055161961    1.60156172573000
C         5.38757747703802    2.58063147125172    0.84434192803078
C         6.46400487222582    1.71125594491034    0.36530802387981
C         5.86068044282422    0.29851562278705    0.17289328172754
C         4.44333657593255    0.38536033198323    0.92042016273264
C         4.28738266676999   -0.92516995623150    1.69278380591922
C         3.99613509995978   -1.90230536865984    0.54236070417067
O         3.54040060405807   -1.18369180842798   -0.63030045670467
H         1.35370115775808    0.96486704151859    0.97734127949268
H         1.59824817070734   -0.70852963143962    1.14925280590049
H         0.99458233181160   -0.12633111206190   -0.37435840976358
H         2.52040181312897    2.09183623176848   -0.84940114226373
H         3.98791690785436    1.51040204909395   -1.62341609998829
H         2.29368360792838    2.59057945093028    1.45538690993660
H         3.46467918323969    4.66532417247269    2.11016403876243
H         3.08362252414099    3.35957577611050    4.32534175694797
H         4.51084427032654    4.54437687719305    4.17134798268340
H         5.85521671768852    2.54051438080770    3.87869030245870
H         4.60928034622587    1.61728320389790    4.22107084463678
H         5.99384339713710    4.44967692997538    1.82220349509873
H         7.24538036578211    1.65142844984551    1.13224886625446
H         6.96007025907083    2.02206293163130   -0.55997973311603
H         6.48176853198181   -0.53825528581280    0.52448729983437
H         5.59403333251195    0.06859385901422   -0.86354742105379
H         3.57010854770451   -0.74649014843314    2.49852803663365
H         5.25314629954492   -1.20276725724107    2.13714918405658
H         3.25079024619431   -2.60813670444470    0.93203632506557
H         4.86396662593752   -2.44383726917155    0.16020539401577
