36
 energy: -47.842290044229 gnorm: 0.152805111013 xtb: 6.4.1 (79825abcba525fcdf90b791dcacef51065a7a4e7)
C         1.79252614420923   -0.06995834434538    0.31482804993535
C         3.25860122843754    0.05368740686471   -0.16086537500853
C         3.40257225398569    1.51171233305344   -0.55606076071684
C         4.05803339689308    1.86175715776056    0.84993691382788
N         3.26961983064104    2.61909001971041    1.81397212169763
C         4.02970093343007    3.78637014541164    2.34993020548161
C         4.31608400048952    3.71159934898292    3.88666950287103
N         4.70197743687761    2.33700948118686    4.24204911247742
C         5.34942018536120    3.63381147423197    1.62917209019017
C         5.32653732476685    2.55190208495615    0.86340445843825
C         6.32393869568457    1.81590140497357    0.08399654397876
C         5.91379286640651    0.35541904092474    0.39323863369801
C         4.42857142981377    0.39247612568076    0.99982427716289
C         4.25670665793401   -0.95729560222134    1.69763201963800
C         3.91554361807214   -1.93358948231693    0.56028857232009
O         3.66883931099430   -1.22180524567389   -0.67734374970229
H         1.44800426321880    0.68521546275664    1.02959956435673
H         1.47228167757430   -1.04511073189818    0.68467784111890
H         1.25616775060210    0.08675960433586   -0.63259949126582
H         2.56060867058105    2.16201874210680   -0.81683946347577
H         4.19246353462511    1.70568175669363   -1.29577393533894
H         2.33185027986675    2.96220514570273    1.59014701622023
H         3.52054036319520    4.73669311431428    2.16957362949866
H         3.33146739555428    3.75912244424887    4.36564195717917
H         4.98111365835013    4.53917248192627    4.16980373687949
H         5.64955562002673    2.10276856688121    3.94204881293918
H         3.97982825819682    1.74949065903218    3.81917787222746
H         6.16136916588172    4.33328185727393    1.74330249939195
H         7.33681776710717    2.09150774719901    0.40092299069584
H         6.31408829438271    2.08971387905580   -0.97608315650178
H         6.57793070626488   -0.23414938917936    1.04199460927008
H         5.87906400546028   -0.17346300263553   -0.56449395828840
H         3.35319517167216   -0.93783082516811    2.31319722239811
H         5.13418271229331   -1.26181092100117    2.28459577435047
H         3.10447103368958   -2.58907535730838    0.90392129394533
H         4.77540377082150   -2.54294798297709    0.27436240435601
