36
 energy: -47.842682942146 gnorm: 0.122501807057 xtb: 6.4.1 (79825abcba525fcdf90b791dcacef51065a7a4e7)
C         1.79469030565685    0.03942288761578    0.79100554202655
C         3.10244826578019    0.16471789153171   -0.02448138896486
C         3.33740367096743    1.59609898049326   -0.47022555119736
C         4.15820516765062    1.81131578079503    0.87474909162778
N         3.32883909093012    2.49630400370332    1.85834248263381
C         4.05759842067182    3.71150561682441    2.32707708782944
C         4.34671132098891    3.59425522975336    3.86064798163274
N         4.19138142058160    2.25057188564052    4.43952051815468
C         5.39763099621581    3.61440929843263    1.63475467573865
C         5.40026302082031    2.54762135075260    0.84772977629244
C         6.37945367160285    1.86070345545713    0.00315136363523
C         5.83164324330846    0.41298993956291   -0.02665343029014
C         4.51084807303801    0.33004759394504    0.88099340918051
C         4.49625874765269   -1.03666987492805    1.56672469834186
C         4.23616442982704   -1.82292683113847    0.27164052600491
O         3.48107745448495   -1.04866491410685   -0.69251491844415
H         1.40917147838466    0.97380463696398    1.21312768348468
H         1.94661517926570   -0.69948341878575    1.57917041476798
H         1.01087678668939   -0.36437389365382    0.13340055779700
H         2.44595540317239    2.23240544578898   -0.48573989594194
H         3.93655755610513    1.75699886182375   -1.37788948155816
H         2.34338914232148    2.59145856002379    1.59936098941128
H         3.61660149513315    4.67433038740738    2.05619537889339
H         3.69733946207791    4.20661681657987    4.49662942536006
H         5.37239075376215    3.94711646932730    4.03608280630461
H         4.61350808111116    1.51190326126886    3.87476291935110
H         3.17854713381241    2.15316160079271    4.54039585128649
H         6.15080242395772    4.34897765782971    1.86860902226961
H         7.40728082808165    2.01749457542537    0.35145171467791
H         6.28775366936731    2.18587011243272   -1.03833652913310
H         6.58416390536596   -0.32600446674941    0.28504232313637
H         5.67823954381224    0.11347452225180   -1.06825405157305
H         3.69523359876522   -1.27294795330637    2.27253189488380
H         5.43070908528401   -1.26414079234699    2.09802481120308
H         3.67241014776694   -2.72764075960081    0.53480916333512
H         5.18076335502754   -2.12906978512176   -0.18271660018200
