36
 energy: -47.847106941246 gnorm: 0.135525223014 xtb: 6.4.1 (79825abcba525fcdf90b791dcacef51065a7a4e7)
C         1.78272636012082   -0.05969522454209    0.54082081614400
C         3.18242310063468    0.04738255495598   -0.10750937582961
C         3.48550586505456    1.49592876196792   -0.44306629520626
C         4.17601151841591    1.73944684752092    0.96863161802621
N         3.40228009678467    2.48598910778224    1.95276942613172
C         4.10317492308271    3.78010547656052    2.20081477964872
C         4.17154927629993    4.00316551926641    3.74831042166726
N         4.31387017969419    2.77090432544256    4.53950118716297
C         5.44476811896455    3.63337445473310    1.52035683871309
C         5.39128744967463    2.50621712092568    0.82457830578952
C         6.37553453028974    1.74243494300885    0.05524245627313
C         5.83505689302747    0.29214205341794    0.09257158023996
C         4.47775197553846    0.24711396063038    0.94749726308794
C         4.30009831359356   -1.11240313220209    1.62463042300840
C         4.09485341805006   -1.97451848730713    0.36855569700709
O         3.46640092521117   -1.22822564153389   -0.70257829534259
H         1.60899110765002   -1.00980760766995    1.05752541530549
H         0.95564575540287    0.09935714704887   -0.15265418710901
H         1.73601303717917    0.58359256710905    1.43180817361803
H         2.52690461075237    2.01620585537833   -0.54407125986750
H         4.17320633582945    1.70270427066902   -1.27555647705550
H         2.41374622507760    2.68153048251063    1.77443897768762
H         3.50252253403626    4.59934228962394    1.79713858489843
H         3.23309757563978    4.47182212764722    4.06581995702700
H         5.01205973808255    4.69147100827621    3.91288394671045
H         5.27207688940703    2.43031783878262    4.63231360953760
H         3.70610838727772    2.08686612746438    4.08319511021066
H         6.30476212421590    4.25934157858596    1.69391138257017
H         7.35245469101312    1.73801241678439    0.55317084256396
H         6.48709622120315    2.09619456198037   -0.97492616685927
H         6.51387090997929   -0.46125005733610    0.51820777993771
H         5.72127916864231   -0.05504067121482   -0.93926795009427
H         3.50379503851628   -1.10514751713873    2.37395068540418
H         5.14432216162206   -1.45132123300284    2.24078046183553
H         3.45792879483728   -2.85917982415516    0.50002911478380
H         5.09139541043575   -2.20307419465299   -0.01497706731281
