36
 energy: -47.842761157193 gnorm: 0.133085806581 xtb: 6.4.1 (79825abcba525fcdf90b791dcacef51065a7a4e7)
C         1.73921963472971    0.03108671687939    0.35873342969079
C         3.20265792814679    0.13894650567815   -0.12877373347339
C         3.45739861854542    1.56524015660403   -0.57992478901125
C         4.09868991751502    1.85863595684204    0.84543638823072
N         3.30975949511221    2.47504920684109    1.90474575464055
C         3.98888256019688    3.75361131653309    2.26749638576859
C         4.08912032832237    3.57069696961108    3.81851809430481
N         4.84831505587065    2.37739590100709    4.22393349583214
C         5.32728059746301    3.64599308535993    1.57356962764084
C         5.35450827215471    2.57023782688023    0.79932101508420
C         6.36893689189034    1.77424770528012    0.10555050650552
C         5.85064976098476    0.31580196722856    0.13980670454665
C         4.46836645802743    0.38536239138833    0.95199896512694
C         4.28578639934667   -0.87803162248390    1.79393534784900
C         4.00109801127578   -1.82058875286086    0.61341401475421
O         3.56554913143934   -1.16661580289638   -0.60389864584599
H         1.46710025128696    0.92646860295812    0.92805181868560
H         1.53409666685402   -0.82749105276867    0.99985458160091
H         1.06323269295966    0.02964122440448   -0.50896429506600
H         2.53533687310895    2.12183396015550   -0.77945444482800
H         4.34883350223446    1.66624797509113   -1.21543182896069
H         2.39266145670003    2.72304143673948    1.52439273478067
H         3.39833611930146    4.66018030611419    2.11169426106632
H         3.05234544065248    3.55778251606708    4.17358705872069
H         4.64947118658279    4.38184660139192    4.30364686637769
H         5.59102211815019    2.30652554082748    3.52669823373123
H         4.27801631022130    1.53046426633245    4.16949051857864
H         6.17511432719179    4.24847064210995    1.85596029363343
H         7.25985577386071    1.73479000049382    0.74354100298411
H         6.76463507916711    2.12220265994391   -0.85423571293944
H         6.58143448788844   -0.35020098313367    0.62141657073824
H         5.78007745601359   -0.07123452466916   -0.88166102746859
H         3.50235915546309   -0.79192500730261    2.55186660284532
H         5.11158602303006   -1.28751074219496    2.39193372881985
H         3.16920718938038   -2.48319440347914    0.88635231710993
H         4.88451865613401   -2.42935257844378    0.40993036755836
