36
 energy: -47.841278965156 gnorm: 0.144008801069 xtb: 6.4.1 (79825abcba525fcdf90b791dcacef51065a7a4e7)
C         1.81005143102114   -0.05114766967313    0.53605464775610
C         3.18322397431314    0.11663090635607   -0.15473918142947
C         3.41387799108513    1.55837679611832   -0.56815322986516
C         4.12598735616460    1.80926023664666    0.83147088219958
N         3.28608223755577    2.48158566195768    1.81485814428982
C         4.00611943282066    3.72267409054061    2.22566595211929
C         4.16126392815902    3.77314366529150    3.78212234623084
N         4.56895264097825    2.52938296735153    4.45410070980897
C         5.40352168484412    3.57236788323801    1.66969819272698
C         5.37756929828630    2.52948088437438    0.85167340939429
C         6.39801476252915    1.78103629571810    0.11512423361627
C         5.86766867718861    0.32913515420201    0.20215867204931
C         4.44310504097619    0.32399780647840    0.94093737834522
C         4.46089998651943   -1.02999591543424    1.65138858173315
C         3.89991321254388   -1.90104952244354    0.51576036286871
O         3.63948341035680   -1.13650266733062   -0.68710204568433
H         1.84779051018071    0.15160103260173    1.61185659691972
H         1.45145068430871   -1.07611617198184    0.43063821290381
H         1.05385142163149    0.67165589514681    0.19608946102309
H         2.61317837810734    2.26800851610356   -0.80290738763373
H         4.19448235385792    1.67436590936138   -1.33361469515379
H         2.33980422333251    2.68926749182408    1.48521667908372
H         3.61742914708782    4.67372515958613    1.85242557425330
H         3.16107319546016    4.02050808446224    4.15571602498126
H         4.83222005979998    4.58256627149547    4.10143350700106
H         5.28506139268606    2.03868460530299    3.91634912603975
H         3.76500509024144    1.89760357875221    4.44951558573940
H         6.24308180674973    4.24649475633648    1.71699885183066
H         7.36003626417228    1.85988871938189    0.63533773948489
H         6.52870534798704    2.18290384513874   -0.89495578188218
H         6.60263775537115   -0.34710595367381    0.66267216849225
H         5.61284248036679   -0.00259182097373   -0.80937225050305
H         3.72386162984650   -0.93971071074858    2.45404378641405
H         5.48077223342887   -1.29952059196124    1.95869498614808
H         2.96291700770699   -2.45132821763525    0.67328929430083
H         4.67174099017895   -2.61485842161562    0.22048124942618
