36
 energy: -47.845202484749 gnorm: 0.116634308207 xtb: 6.4.1 (79825abcba525fcdf90b791dcacef51065a7a4e7)
C         1.65174768587437   -0.09886280304028    0.29544028997476
C         3.12435508986727    0.12602307749676   -0.11905016941844
C         3.39621091512062    1.59443340129479   -0.38851110075897
C         4.10394656918966    1.75867083602303    1.02610061948808
N         3.42938818124200    2.40922991717649    2.14245918483838
C         4.09965297749377    3.72321965663321    2.36982061859812
C         4.21863288614141    3.86785215941143    3.92355764474874
N         4.75005460962812    2.73481218492744    4.69719648905806
C         5.37885794464151    3.58830417149134    1.57618489321478
C         5.34141219690493    2.48143421588182    0.84756416967210
C         6.35721866780367    1.73489288151142    0.10271770076278
C         5.81253687742226    0.28571009521671    0.10978234014351
C         4.43243928945167    0.27504952725910    0.92857348172814
C         4.24879030841789   -1.13601607052238    1.48850515498752
C         4.09108761023498   -1.87615728742708    0.15044205984827
O         3.57127261376346   -1.00438029774828   -0.88349739587711
H         1.58469864710508   -0.72384201566724    1.19253923254350
H         1.11210584213792   -0.61990037869701   -0.49675543835424
H         1.10168487525370    0.84746723808995    0.40383829237514
H         2.52183380194988    2.22977164776107   -0.56632148104474
H         4.15964369590372    1.65845221207015   -1.17705398327217
H         2.41188994324562    2.49024156827885    2.06916666808394
H         3.50387829848730    4.57816421695867    2.03965550796236
H         3.15443212880619    3.82072875700839    4.18123774906430
H         4.65836123507860    4.82681862563704    4.23068792383320
H         5.76382817204603    2.68353641110871    4.80858478892424
H         4.35371106743358    1.85110325659149    4.36937304340546
H         6.15825626350165    4.31240808100234    1.74868826671537
H         7.31955476177565    1.80070935049864    0.62416052705807
H         6.57398773212845    2.13281210783980   -0.89403235485941
H         6.44800103247104   -0.51086755054648    0.52354994757969
H         5.55632031928291   -0.00258191015586   -0.91462714038687
H         3.36669244865087   -1.19035875575670    2.13238603980262
H         5.13255693424801   -1.45917364894490    2.05573168113570
H         3.39371761798923   -2.72318980701143    0.19280831955250
H         5.09342209889896   -2.14207525245262   -0.19167521087907
