36
 energy: -47.848522671349 gnorm: 0.139055863796 xtb: 6.4.1 (79825abcba525fcdf90b791dcacef51065a7a4e7)
C         1.79889983077956    0.01970148223575    0.53328029979280
C         3.19333266801100    0.18432856273164   -0.11433350848170
C         3.39967839485793    1.63599250561102   -0.50527719472758
C         4.13910510144756    1.86343979299128    0.88414931616367
N         3.32214546710178    2.56414586993717    1.86705361294973
C         4.05104417684168    3.79086467652921    2.30452918543399
C         4.16659092014129    3.55175883885616    3.84681675394906
N         4.49345966160843    2.16525201897029    4.21486753830549
C         5.39801927834704    3.66264341093025    1.63099915863447
C         5.38095612747217    2.59924118910395    0.83958510772092
C         6.35891549474948    1.78874451518871    0.11111147963852
C         5.88556218871188    0.31991411709084    0.23493766596111
C         4.46209483778556    0.37809959905299    0.97355613450609
C         4.37028919626786   -0.99944797239560    1.63104476949705
C         3.96366000326599   -1.87188745233158    0.43246472034947
O         3.64759963713192   -1.04020678096262   -0.71105908162508
H         1.50877181321306   -1.02331442707970    0.70008757726353
H         0.99029927567754    0.30848344342882   -0.13980044258152
H         1.67582873898130    0.47480585757063    1.52705759088356
H         2.50118577970929    2.22621847009363   -0.71539850687465
H         4.09002706559101    1.93507336830789   -1.30696123993754
H         2.35660533651185    2.82718883166007    1.65309553923451
H         3.58927394789593    4.73888844654409    2.01659532160804
H         3.24382931875991    3.91655650098676    4.31219467505804
H         5.00990581829716    4.12960868145267    4.24957756331074
H         5.47394548390926    2.09229396453737    3.93900874760970
H         3.91485988514675    1.47371687325218    3.73268569501384
H         6.15956754669119    4.38741366020544    1.86827125140911
H         7.36484880394507    1.95844453881638    0.51313800283259
H         6.36845186574405    2.08088105475041   -0.94406839746025
H         6.57230606112737   -0.23303133251350    0.89234811714218
H         5.88400352012485   -0.18748455344727   -0.73496861663808
H         3.60004672988180   -1.11136197185327    2.39905142058697
H         5.30462315015527   -1.38587056115445    2.06106559113502
H         3.02592577436694   -2.39950772835583    0.65122321143693
H         4.76840278772907   -2.55165423572618    0.14482395352399
