32
 energy: -49.315450596500 gnorm: 0.145813864822 xtb: 6.4.1 (79825abcba525fcdf90b791dcacef51065a7a4e7)
C         3.42382669042516   -1.65506867859131   -0.40332062786865
C         3.15341567321946   -0.33550233374346    0.30938171381573
C         3.14636713765966   -0.41603404942139    1.86006433267856
C         2.36253342663464   -1.64566702330919    2.41069312145643
N         2.35858830868080   -1.70916142382756    3.88991744013399
C         2.22877992482689   -3.13380260512908    4.16100537752763
C         3.58253588710512   -1.07347199952350    4.46063758018638
C         4.82895250163080   -1.06008024302279    3.53258945960356
O         4.55758461386009   -0.48806113608498    2.22112794454343
C         3.32350910259781    0.37618783565295    4.71244653082346
C         2.81829769353720    1.25672599026095    3.80191462898402
O         2.57573526500068    2.43684849510840    4.42421299872448
N         2.89662081977898    2.26289103927921    5.78200903071561
N         3.25770967124992    0.98676553626290    5.92733276325996
C         2.53860319849807    0.98331013330881    2.37158458837646
N         1.06987629643400    1.10216145273539    2.29394139210783
H         2.53713612119141   -2.29857768435541   -0.41584244625610
H         4.33971911022796   -2.08857388063477    0.00534159169336
H         3.49730039464120   -1.37126586724074   -1.45728728197426
H         2.14286407127128   -0.01156169690734    0.03656899486567
H         3.90924892058766    0.37231222735108   -0.05300715720646
H         2.76859837631544   -2.52353468175782    1.89056596876950
H         1.28443138759982   -1.59185355596275    2.22142078857541
H         1.34609435494192   -3.37835734689875    3.55814235422586
H         2.03638960182662   -3.38339660831412    5.20910236598368
H         3.04765215759846   -3.72673827433499    3.74084924501584
H         3.88044680033819   -1.53422631723455    5.40995694785181
H         5.20387186892039   -2.08289122675583    3.41443563609560
H         5.52762898585804   -0.41415832675819    4.07633149587350
H         2.94557633426834    1.82534649864395    1.80484513283900
H         0.73006061817673    0.44436565154504    3.00492677611078
H         0.64820288004200    0.75539419376586    1.43636759836350
