32
 energy: -49.312906592265 gnorm: 0.156285208125 xtb: 6.4.1 (79825abcba525fcdf90b791dcacef51065a7a4e7)
C         3.73025584218803   -1.48227842638740   -0.27646744845324
C         2.93193350196742   -0.32581742133745    0.31310992516835
C         3.04041901124803   -0.33148643015497    1.86209359192084
C         2.27268977984640   -1.55611062706783    2.44559339405194
N         2.39948856277532   -1.71073964968572    3.91261882697909
C         2.17981632096601   -3.01913512057905    4.51244111598850
C         3.71300221243657   -1.17211155514700    4.37352215964019
C         4.81450276889353   -1.27373339346455    3.28202018933802
O         4.46978939130977   -0.50554064785184    2.09381553799321
C         3.44315443955846    0.27518133860394    4.62757279222203
C         2.82507074114282    1.15450681132647    3.78827927279498
O         2.45417652889069    2.27257844080024    4.45994455381321
N         2.82855101343480    2.05446514986592    5.79752039867234
N         3.46773941533008    0.88433178121150    5.84470654520128
C         2.50105256247977    1.10653545416323    2.34206343216919
N         1.03725720712238    1.27871646702796    2.27156746959725
H         3.36039799149258   -2.50478371318333   -0.14167534297301
H         4.74599948977368   -1.38723457211696    0.11471282270576
H         3.70433567510747   -1.33837966096455   -1.36063045297585
H         1.85919642615951   -0.48323807969246    0.15489246817956
H         3.31538476649188    0.63445403183053   -0.05357101819122
H         2.66292157763433   -2.43836363469783    1.92078733227989
H         1.20986979249701   -1.47177624835440    2.19196906170617
H         3.11792379394712   -3.57952748666000    4.60354228318481
H         1.56059059860167   -3.52719854679345    3.76661971454010
H         1.67183610008778   -2.92725649550610    5.47793064560715
H         3.96278633655709   -1.64185304732842    5.33227318918320
H         4.84669917647003   -2.30165848855650    2.90386604432838
H         5.71776619799837   -0.74657346344129    3.60949070332313
H         3.00007475465572    1.92190483753119    1.81103084702114
H         0.53845164399323    0.48745440946006    2.69437663433562
H         0.74692790167380    1.26202947705924    1.29744260221328
