32
 energy: -49.312796432621 gnorm: 0.152225596987 xtb: 6.4.1 (79825abcba525fcdf90b791dcacef51065a7a4e7)
C         3.35625375555757   -1.65070252624695   -0.36627806249232
C         3.10451896607029   -0.29038593955439    0.27285452866841
C         3.04380621255830   -0.28846688099964    1.82445432063691
C         2.31711578339094   -1.54867634390255    2.38425585041451
N         2.38019759307163   -1.65465168200856    3.85970209282819
C         2.22863324460102   -3.03095371768915    4.30999349603908
C         3.65577568727732   -1.12191348496627    4.42269478053171
C         4.73981150201856   -1.25676852134610    3.31739504565059
O         4.45217755465888   -0.37738566299280    2.19279280262590
C         3.34722986523721    0.31438635942076    4.69446399854882
C         2.82592889820699    1.24335548476447    3.84304399065367
O         2.63413450603224    2.39476556960137    4.53315315287934
N         2.95431803192330    2.09995981552363    5.87009401921799
N         3.40091421349639    0.84510654316825    5.94687660736399
C         2.51938842907212    1.12074956216394    2.39741955306043
N         1.04754008700252    1.19314466513912    2.32169484380246
H         2.58350122707936   -2.39344726375580   -0.13897960792994
H         4.33961373422122   -1.96637418843236   -0.00970401710608
H         3.44218004995435   -1.45549134803967   -1.43926333601028
H         2.15027236583526   -0.01740637926772   -0.19133771637866
H         3.94452221211516    0.37178712939677    0.02886185562351
H         2.89649825678534   -2.43565856819516    2.09503082250115
H         1.29733195408363   -1.63271828077703    1.99182520747381
H         1.89702172024406   -3.11751983252430    5.35159071417255
H         3.14549597968632   -3.62755962387052    4.27474266884010
H         1.47963842286235   -3.47617369545537    3.64708961844564
H         3.82440791149888   -1.66979002962228    5.35738573554831
H         5.00005491941755   -2.24265935402818    2.91619709747542
H         5.67828893970469   -0.86820791622791    3.72885599073720
H         3.07488905179629    1.82014096084856    1.76645464080446
H         0.73121188898702    0.32652569638126    2.77178179341531
H         0.65316721764364    1.07698118767034    1.39192879673315
