32
 energy: -49.309223510501 gnorm: 0.155248713575 xtb: 6.4.1 (79825abcba525fcdf90b791dcacef51065a7a4e7)
C         4.07858899004700   -0.90028632727667   -0.47483914414566
C         2.92776692233069   -0.30664459217851    0.32860353647635
C         2.92971023031976   -0.46878868963155    1.87290180715511
C         2.15530048697794   -1.73159253017747    2.35787668549649
N         2.12778053074820   -1.64086390617809    3.83542961882644
C         1.71717686769900   -2.86167963249695    4.51436627395936
C         3.46239626563974   -1.24588440230782    4.37456062623269
C         4.64613520915543   -1.41737115700390    3.38241071669551
O         4.31568595209776   -0.46996250222162    2.32694975642898
C         3.37976134954530    0.20712618117360    4.71212242991147
C         2.89221283524613    1.11050218895601    3.81442393876911
O         2.97582012797438    2.34453748635165    4.37025450668799
N         3.57747029487191    2.16740203365056    5.62861809010779
N         3.99273302387534    0.90207778113806    5.70931410979650
C         2.32935672203100    0.90464730637010    2.45808842747888
N         0.85638357947582    0.94908662190572    2.38266913103787
H         3.84082560738336   -0.91755009125919   -1.54425549817271
H         4.20308123821712   -1.95404650524627   -0.21429805136475
H         5.04124702217231   -0.39256691766191   -0.36393991213214
H         1.94183031829216   -0.64880100201937   -0.00521806248675
H         2.93075340217347    0.76738776539816    0.10487015869220
H         2.80845159148770   -2.51842749790574    1.95743068049405
H         1.10858518135931   -1.78281209271165    2.03727172777636
H         2.54443689845291   -3.57794284365282    4.58502399923739
H         0.91375240917263   -3.43106450618477    4.03673827434915
H         1.44097606311795   -2.63194823336123    5.54857719019339
H         3.69181784770152   -1.88471055836323    5.23567594447019
H         4.69554437259582   -2.43223224824996    2.97218776893734
H         5.62862248776769   -1.06703895503361    3.71857354428309
H         2.64825506082773    1.70403035778032    1.78345032223226
H         0.53265079262814    0.35693648491759    3.15611953130261
H         0.50716964676825    0.64741534951103    1.47683642853017
