32
 energy: -49.316534631914 gnorm: 0.144597787095 xtb: 6.4.1 (79825abcba525fcdf90b791dcacef51065a7a4e7)
C         3.35281919737028   -1.44227622653446   -0.43949038513960
C         3.11178665693012   -0.17341020430075    0.36933866236063
C         3.16750237699423   -0.37719063384344    1.90768873662986
C         2.47096055115837   -1.70324858956502    2.33894785568555
N         2.36759436717315   -1.73547566178029    3.81557528252135
C         2.07075213002884   -3.07212576845039    4.31074451666065
C         3.57384399314148   -1.16061356496748    4.48068101494997
C         4.79577324811061   -1.12569373178172    3.52116209867327
O         4.56768139695802   -0.34306603200530    2.31441204086579
C         3.34298664326694    0.29060294840102    4.75029520428909
C         2.73629913269436    1.10150477626635    3.83704667371287
O         2.67991329908579    2.33973914903519    4.38693504670605
N         3.21812758418375    2.24856954134139    5.68264037257174
N         3.68821373205179    1.01152756994155    5.85218867162726
C         2.31455664408887    0.88229753206900    2.43244325592396
N         0.86289821595572    0.96773209979526    2.18204047468487
H         2.45350808764363   -2.06754598304903   -0.41195741552212
H         4.25159347871173   -1.98392149458157   -0.13516212338054
H         3.36928419196479   -1.10661837543041   -1.48057195789498
H         2.14127964514367    0.26782907028673    0.11635070839660
H         3.85006455928808    0.62919515988128    0.24941608708967
H         3.14112652178824   -2.49258087658294    1.97301787560646
H         1.47549800254972   -1.72747469018828    1.88124562435613
H         1.71317907059569   -3.05428795407577    5.34718456814161
H         2.92664435061414   -3.75244815627530    4.26146512703264
H         1.24990761732038   -3.50084254624516    3.72673096230380
H         3.86218459118549   -1.71849601604517    5.37950224047427
H         4.98951251100122   -2.14752864675362    3.17621909275923
H         5.71024018181809   -0.65922800865159    3.90480165788993
H         2.83434082924376    1.76371740888395    2.04673686993241
H         0.30182495809546    0.35374575467533    2.78361157396756
H         0.58776907033941    0.75400258546957    1.22699468492487
