32
 energy: -49.306192791642 gnorm: 0.150925985535 xtb: 6.4.1 (79825abcba525fcdf90b791dcacef51065a7a4e7)
C         4.04369592793058   -1.16932812801602   -0.31772013774214
C         3.10119704326867   -0.15504430896158    0.31886943090067
C         2.96536519535445   -0.37740405383839    1.84963965969187
C         2.20380334131038   -1.60067092873390    2.44396812625372
N         2.20570220050149   -1.76803591027941    3.91506875164342
C         1.87876785584248   -3.13614786403721    4.29100092356363
C         3.43879815244450   -1.15958266497893    4.49569705959787
C         4.59112191997331   -1.35656484321131    3.47180497077087
O         4.33727165852792   -0.48561431912374    2.33260220567308
C         3.28887605983623    0.31503991600265    4.68285447168596
C         2.77757325954683    1.17047949260590    3.75202314334559
O         3.08516384652725    2.41482694203850    4.19448037435671
N         3.66821615346603    2.30907312451140    5.46951172365813
N         3.77316232771991    1.00879643697878    5.74927463656910
C         2.19613313029074    0.91956251202521    2.41120348586838
N         0.73515553392430    0.77565854974468    2.56002869296032
H         3.46666859163802   -2.08153451347130   -0.50586839819226
H         4.88630613433009   -1.25517692307496    0.37251787986768
H         4.39032057554179   -0.86519243408096   -1.30975892819814
H         2.12893468162676   -0.25192451671752   -0.17701259407061
H         3.43383191381444    0.85769969028532    0.05941869965642
H         2.70864550276769   -2.47358283028182    2.00896026756832
H         1.18811533860768   -1.66935692275456    2.03815532165081
H         1.55593535639272   -3.10643164677895    5.33851263400715
H         2.69768546010897   -3.82311295811339    4.05590218253585
H         1.09181616439564   -3.35238148336832    3.56120254090570
H         3.90518069842435   -1.58364125339870    5.39286725212590
H         4.69133866614828   -2.41070071205653    3.18998704009142
H         5.50614281174391   -0.87849235814510    3.83950433862484
H         2.33320390487801    1.83111518459253    1.82287591855955
H         0.34143875830964    0.06695981899851    3.18963446632252
H         0.33079561385434    0.71530096486655    1.62925544655982
