32
 energy: -49.317225929154 gnorm: 0.146329320198 xtb: 6.4.1 (79825abcba525fcdf90b791dcacef51065a7a4e7)
C         3.72286131394954   -1.45887298761757   -0.28725350272585
C         2.95843328188938   -0.27630643634528    0.29541984506359
C         3.12173393084896   -0.32069635605729    1.83895930610085
C         2.32963093384569   -1.56925450281054    2.33217328371982
N         2.24305256813295   -1.64915785076711    3.80807007588509
C         1.88721427628354   -2.94877552994745    4.35971705156822
C         3.54006076313822   -1.20984708226527    4.40191012885636
C         4.71531127689261   -1.30868642776814    3.38996939493832
O         4.51213973223054   -0.39714047958491    2.27256928323673
C         3.33842576747669    0.23928066239433    4.70421522741354
C         2.84865308979657    1.14758159331232    3.81271845385164
O         2.71545082930517    2.32513652573704    4.47181060675152
N         3.34504036334322    2.16605402987451    5.71886657158072
N         3.69671671206094    0.88551561641281    5.84749613584921
C         2.42311621677032    1.01656444750248    2.39829908386294
N         0.95182112868358    1.06460912274085    2.29683337856886
H         3.10264952444845   -2.36100884247261   -0.33162736821975
H         4.61211917482591   -1.51252216736011    0.34530694433769
H         3.97246002480493   -1.19900399010656   -1.32018947263546
H         1.91988049762027   -0.42589152384954   -0.02019268618222
H         3.28552189002355    0.70020539147053   -0.08279800244838
H         2.77780068121258   -2.49079821270007    1.93723822534504
H         1.30759490120616   -1.46042364186286    1.95188114327774
H         1.82902850296401   -2.69488878394505    5.42486520983284
H         2.62812413287259   -3.69551336577720    4.05763479143958
H         0.87190820099423   -3.12650260755475    3.99063402411162
H         3.94017823494118   -1.80477610353299    5.23149929227255
H         4.77508978443409   -2.32660602845216    2.98880436158133
H         5.63271185019159   -0.97738172129854    3.88960199191040
H         2.77606290019437    1.92799847920201    1.90782723327523
H         0.59275272665238    0.28836108760846    2.86444160260644
H         0.72029021228732    0.80600684043024    1.34131932136545
