32
 energy: -49.314802531626 gnorm: 0.151761168542 xtb: 6.4.1 (79825abcba525fcdf90b791dcacef51065a7a4e7)
C         3.51548338635267   -1.61339385148567   -0.37441639598214
C         2.96721158872101   -0.36074244837461    0.29832767741501
C         3.06498635046146   -0.34504359213885    1.84795514305799
C         2.30894722389364   -1.55695023838547    2.47187160265433
N         2.33907469237186   -1.72817816382123    3.94222021244274
C         2.10635888768955   -3.09520806361423    4.38608279589418
C         3.64243796668132   -1.14754362117767    4.38037306771124
C         4.80486206932086   -1.16984966429995    3.34921853128394
O         4.49083461697925   -0.40893860947046    2.14789474968166
C         3.31447330785765    0.26472848907866    4.74084906637574
C         2.76697179356452    1.12991258439161    3.84009774593629
O         2.54880866148632    2.26765830295085    4.54488172658005
N         2.99009253156025    2.09224811516963    5.86826323391654
N         3.49954532500372    0.86189634166488    5.95007285247940
C         2.53702606984179    1.08029436375554    2.37603071320814
N         1.13921462692527    1.41577074268401    2.04302683322507
H         2.92380276696960   -2.49406042614935   -0.10088169537334
H         4.54890149753287   -1.81313402887475   -0.08125882067334
H         3.46082459800929   -1.38684115505528   -1.44328234753859
H         1.92712696296228   -0.19056888132025   -0.00141185059660
H         3.62834600405195    0.47455588583794    0.03605104348697
H         2.92386035023260   -2.38028095001516    2.08446867662818
H         1.25021744068440   -1.53934385717954    2.18937349527029
H         2.45347821993735   -3.40320741654819    5.37957624095333
H         2.53558974425126   -3.73722703393563    3.61058874896905
H         1.01863603962136   -3.21834892621815    4.36734901723960
H         3.99105225331285   -1.76692258552171    5.21529252318161
H         5.12697483588317   -2.18864155446020    3.10637369084403
H         5.56495963409102   -0.60580412047542    3.90159853995214
H         3.08069638125929    1.85430823030887    1.82724011109524
H         0.59785527930345    0.72520145353575    2.57567525511322
H         0.97418724249705    1.35755126311232    1.04159522315139
