32
 energy: -49.314911884683 gnorm: 0.159184695542 xtb: 6.4.1 (79825abcba525fcdf90b791dcacef51065a7a4e7)
C         3.54275775017217   -1.47611128175360   -0.40840944346185
C         2.88343077568023   -0.31569759141239    0.32715163361006
C         2.91238370653649   -0.30096499521850    1.87960012723303
C         2.17231252482377   -1.54761434972280    2.45209000720845
N         2.34225544170153   -1.83510730976536    3.89452506588488
C         2.05053958146112   -3.20702176564442    4.28528581746248
C         3.60601474760573   -1.21701417083217    4.39326699221436
C         4.66801414352348   -1.31423361847754    3.26290744429309
O         4.33456376650554   -0.38600642842750    2.19146783259548
C         3.34807068827949    0.22604985022366    4.68144642136439
C         2.89523430853709    1.18982456868140    3.82954742864926
O         3.02583599196080    2.37249698605542    4.47993969584875
N         3.53157719071175    2.10768782233979    5.76482908914346
N         3.73419434143913    0.79226545466684    5.85762314683044
C         2.42683262856872    1.13337316510684    2.42375853161027
N         0.97491875558275    1.39649816652050    2.42867503309748
H         3.67345026034227   -1.01919481205179   -1.39564174302141
H         2.94007020188690   -2.38444526784957   -0.48248766725132
H         4.54462075752591   -1.65791801392567   -0.00840324986712
H         1.81869611672809   -0.26475340462677    0.07353054536727
H         3.33154343166123    0.64776480259786    0.05411992180101
H         2.46207508275713   -2.43134651652980    1.86802858157790
H         1.07966884439586   -1.50599809079937    2.37845717502845
H         0.95563254881173   -3.26030298173646    4.25837182722722
H         2.35168686366051   -3.45677978722012    5.30741582176791
H         2.42197139517976   -3.84625397570536    3.47777345897796
H         3.90438691609629   -1.77053395302632    5.29151118045942
H         4.89595403029118   -2.28596923089767    2.81075650107850
H         5.52881628666671   -0.86648678697893    3.77237953009743
H         3.04821263218206    1.88778095908466    1.93324677724391
H         0.55165110198020    0.70212969952174    3.05506720559620
H         0.63240652909130    1.36704061709181    1.47195854069825
