32
 energy: -49.310031555848 gnorm: 0.147361279938 xtb: 6.4.1 (79825abcba525fcdf90b791dcacef51065a7a4e7)
C         3.67344045557170   -1.24672627546200   -0.48465489951397
C         2.91309268864039   -0.18186309568986    0.29653634706148
C         2.96820548558144   -0.34330269962290    1.83992594605892
C         2.26180457402900   -1.65502225445310    2.29815533289364
N         2.25502463894331   -1.76966059485075    3.77428668390385
C         1.77093017305197   -3.04310265303907    4.28803685804723
C         3.50174626760556   -1.20609595162059    4.37090236571689
C         4.65009400037276   -1.30588782535575    3.32862308398212
O         4.35019400251691   -0.31433590266346    2.30506923493788
C         3.35226237324727    0.23525928589304    4.73444865839850
C         2.94271249291884    1.19328422195138    3.85461260778795
O         3.20271814957203    2.39521591770900    4.42604779149072
N         3.88511909020645    2.19068954168234    5.63820979167892
N         3.91576423460125    0.86679888108419    5.80061311387104
C         2.31945252921219    0.95755070954297    2.52992170534999
N         0.84542342859912    0.92553522254213    2.58930203660853
H         3.84102895965099   -0.99357934962785   -1.53741865655815
H         3.20858642845786   -2.22866125468271   -0.36844421410706
H         4.61365394986262   -1.17475412644500    0.06996814844584
H         1.88958800897188   -0.07394578682505   -0.07945683827517
H         3.36922152504891    0.80192518220792    0.13004863556364
H         2.64122555899894   -2.45532395472101    1.64882527383930
H         1.18832124611121   -1.61903869288496    2.08052573472178
H         0.91813215890171   -3.48249988688975    3.75695280473349
H         1.37600007419891   -2.81453511657569    5.28282608126464
H         2.49883119775817   -3.84628575207096    4.44202588350691
H         3.60945205048646   -1.75579789355806    5.31349451313655
H         4.53044984085661   -2.32469821797934    2.94342465232062
H         5.66756216899473   -1.15163819814754    3.70543195784193
H         2.46020242329546    1.81000612274599    1.85958207310069
H         0.42024587970997    0.41165935802683    3.36957497879538
H         0.47939422781724    0.54156872436425    1.72207590279734
