32
 energy: -49.313254360319 gnorm: 0.147291587784 xtb: 6.4.1 (79825abcba525fcdf90b791dcacef51065a7a4e7)
C         3.39295231640649   -1.51041637200341   -0.30643527503743
C         2.88197191370817   -0.22968182701258    0.34236373290693
C         2.90940675790204   -0.35163956749755    1.89011219184201
C         1.97716190491463   -1.44155067980737    2.50052020148617
N         2.31432747111380   -1.73924368999136    3.91114061576835
C         2.23125269560087   -3.16517093521210    4.19357904066591
C         3.62448037982188   -1.22721160799148    4.41033268968533
C         4.69881779438703   -1.38376586063617    3.29844378606531
O         4.32785797575820   -0.57413839889098    2.14619819696840
C         3.50440267486438    0.23073332490051    4.71363816530076
C         2.93023706588012    1.17711532797242    3.91717765337372
O         2.82254861138626    2.34657393317759    4.59507935074230
N         3.30567313800253    2.07160095474039    5.88652015837314
N         3.67525574847446    0.79086927518261    5.94251579082262
C         2.54542146555624    1.09750375141078    2.48734960261362
N         1.18335898411022    1.54270550620647    2.13536378031364
H         3.43279347700676   -1.37024707766729   -1.39236623817223
H         2.69614986601111   -2.31588165658535   -0.06254489399872
H         4.43446481120559   -1.78921869937335   -0.12120807693002
H         1.82859962839927   -0.20217403952135    0.04198228999208
H         3.52731211204940    0.58031454214949   -0.01964864636521
H         2.01014063291108   -2.28912999502708    1.80295705701811
H         0.92036489296164   -1.15545456047195    2.45201241317790
H         1.21300941217314   -3.55222116146078    4.06805056353288
H         2.52531714440049   -3.36743668336983    5.22819644371254
H         2.90676404574326   -3.81083399057173    3.62308867764263
H         3.79651860960464   -1.82723099264935    5.31179389902089
H         4.79612970665547   -2.41758372955353    2.94856069614616
H         5.61488631213121   -0.85363435919411    3.58269441548188
H         3.25310785370014    1.79546805609328    2.03141998467821
H         0.57862187010394    0.71841681074263    2.22762101294079
H         1.23988158631826    1.77532329637581    1.14734405352841
