32
 energy: -49.316151477366 gnorm: 0.141213973880 xtb: 6.4.1 (79825abcba525fcdf90b791dcacef51065a7a4e7)
C         3.34739537300581   -1.43764952511879   -0.48581948854332
C         2.80573066365498   -0.23734906153963    0.28112264272900
C         3.03945658968038   -0.39560328618503    1.80804092309233
C         2.33578114100491   -1.67081082844169    2.36326269409480
N         2.25682266030200   -1.64135979816528    3.84145412406491
C         1.89764766320063   -2.98587084804997    4.26950172561649
C         3.59778649879223   -1.19051652216836    4.31729711039219
C         4.75681391200976   -1.22143021883843    3.28254745790251
O         4.47207364214586   -0.46161265405454    2.07325925610757
C         3.44268303836897    0.23542948842491    4.73519325677182
C         2.98643466455407    1.19129063725467    3.87622802116182
O         2.90764282280037    2.36891973976680    4.54388247941388
N         3.33151985318902    2.09741332062955    5.85668533242962
N         3.71304306133580    0.82129122537633    5.93384030708344
C         2.56074217527979    0.99068204315131    2.47003763782207
N         1.09862845334759    1.16758477876182    2.56082152042096
H         3.69551609699948   -1.11388711319892   -1.47297229651653
H         2.55669342227493   -2.17406021775773   -0.64793121696375
H         4.18936340420034   -1.91343883363259    0.02555365991439
H         1.76427496284040    0.06342898886483    0.12149356099394
H         3.44256262729708    0.62004066159179    0.03024624448663
H         2.86109086554842   -2.56351129742920    1.99828571076549
H         1.34198536041161   -1.65461173344111    1.90160106866649
H         1.04491448348901   -3.36477082473434    3.69359757350364
H         1.63174872142994   -2.98535586062763    5.33115891679108
H         2.66191580705496   -3.76535526467233    4.18611187548896
H         3.91748439181838   -1.63089759193533    5.26919547909848
H         4.96924110097395   -2.22817342715449    2.90570535224878
H         5.52003123091526   -0.70315868701755    3.87408215917528
H         3.05938798529100    1.71584321395824    1.82093084032407
H         0.62161296129439    0.47539433190555    3.14988758606306
H         0.63096961035257    1.12841270226854    1.65901801035135
