32
 energy: -49.309142575264 gnorm: 0.153426712545 xtb: 6.4.1 (79825abcba525fcdf90b791dcacef51065a7a4e7)
C         3.77417599508682   -1.42922193344563   -0.40469906880803
C         3.19933330849133   -0.19172067875376    0.27387931475595
C         3.11675336689702   -0.39151159681060    1.81154500736753
C         2.41987773103847   -1.68638809017187    2.32850133327899
N         2.37104788794828   -1.71897036206603    3.80792883481927
C         1.90194565575189   -2.96985690296465    4.38686521316922
C         3.57640644873176   -1.05556069758107    4.38660711905305
C         4.80689581187429   -1.14228540561049    3.44141836193132
O         4.51545781928255   -0.39703206746134    2.22468541554370
C         3.32943319071949    0.38719051898096    4.68575492633177
C         2.71328058015689    1.24109086999228    3.81923052967388
O         2.58905616155441    2.45252774234601    4.41569505247887
N         3.09285982068129    2.27052560600633    5.71565501320446
N         3.53040438792380    1.02014040501097    5.87405971848015
C         2.33462918172162    0.86913652608434    2.43463586846939
N         0.88765787014912    0.58011036874725    2.42751257208861
H         2.97028248188283   -2.14306818611377   -0.61602713357919
H         4.60702117762297   -1.84166245853156    0.16980263755443
H         4.20131865230129   -1.14693384885105   -1.37147242222293
H         2.17534310150808    0.05721407101124   -0.02621134729946
H         3.79654336450050    0.70533267385277    0.06833982440857
H         2.89952396251150   -2.57365128071239    1.89401755779588
H         1.49156405890709   -1.58698265314871    1.75458826971728
H         0.82060529889025   -2.99721149251774    4.20703357643252
H         2.24004989894895   -2.94415436222680    5.42746283074861
H         2.29401520600876   -3.84517571381671    3.85889356359233
H         3.88105959259489   -1.58302068732778    5.29832261221998
H         5.01955889256641   -2.18442225303217    3.17799404019402
H         5.60430973633372   -0.63638510350878    3.99748964622188
H         2.31111421752516    1.80552106170199    1.87029816585465
H         0.80783904431277   -0.20551184934354    3.08333031749726
H         0.49557738769087    0.40065348351590    1.50688401500357
