32
 energy: -49.307209150898 gnorm: 0.155300931867 xtb: 6.4.1 (79825abcba525fcdf90b791dcacef51065a7a4e7)
C         3.47139659884161   -1.49816906771392   -0.47214080998280
C         2.89951904212615   -0.32195065651955    0.31002822300619
C         3.11610520762572   -0.38038908964167    1.84652652155234
C         2.32631029065630   -1.62941759209697    2.34224459473088
N         2.38884169994494   -1.74709150288477    3.81682736848794
C         2.07213801654737   -3.08280148125100    4.30213036782853
C         3.60620934643832   -1.11587461163078    4.40627748819811
C         4.83033737136213   -1.08096585034832    3.44956489274782
O         4.52797407784064   -0.37514355847681    2.21216074311090
C         3.40150293078470    0.34087310468428    4.66704106570006
C         2.86275110000681    1.21366073807495    3.76835170060594
O         2.67945857805347    2.35388488441240    4.47903705481144
N         3.08162959195729    2.18640653473012    5.81584230449154
N         3.54091984777652    0.93561998300051    5.88356164888003
C         2.46597438990044    1.00070969142436    2.35553558591782
N         0.99100504488374    0.98004166291126    2.39229277742843
H         2.87488116573822   -2.40375319837745   -0.31540050657268
H         4.45674017319410   -1.81768867585716   -0.12458397341921
H         3.66199883456351   -1.31548115765831   -1.53378295381120
H         1.84704093044318   -0.05074206243379    0.17105131963786
H         3.58418449336031    0.48372113514996    0.01721900464597
H         2.80933428934796   -2.45238306462709    1.79865626214729
H         1.31589691783745   -1.46846468213658    1.94958330053054
H         2.12636098321637   -3.05866581395098    5.39705593429686
H         2.78756076410942   -3.83892655146363    3.96410127536327
H         1.06281943713583   -3.48339713465678    4.16265011564690
H         3.79111384411876   -1.56662143445716    5.38856580900371
H         5.18466582282024   -2.10987617722915    3.32126035574552
H         5.53819295422154   -0.43775702357760    3.98458099872351
H         2.79170588360394    1.80512998536101    1.69021388192258
H         0.77027754508670    0.19714630618004    3.01841134364493
H         0.54138338579650    0.94995848310519    1.48101664887619
