32
 energy: -49.314947957801 gnorm: 0.148466760571 xtb: 6.4.1 (79825abcba525fcdf90b791dcacef51065a7a4e7)
C         3.54487350527091   -1.70603490772535   -0.21787225381657
C         2.98506481155021   -0.40847975905907    0.35246706879944
C         2.99522545105263   -0.31386663593808    1.90233697955462
C         2.21486003336997   -1.53433530218309    2.47772436923589
N         2.35482254583875   -1.75948560873518    3.93438820351116
C         2.27629877690900   -3.19641155728142    4.15579105506753
C         3.63207488788858   -1.14183746720285    4.39807715538126
C         4.76097447308510   -1.20207703515720    3.33179203922602
O         4.42927921323240   -0.46927255318954    2.11780952486573
C         3.28902963785728    0.28518038916969    4.67728363332467
C         2.81868779070052    1.25961167305455    3.84727364898873
O         2.64034270883152    2.41209872257501    4.53918950532212
N         2.91355407747238    2.08881740152910    5.87996671899543
N         3.35157052433477    0.82935434303390    5.92349653904030
C         2.51255590057592    1.13770385822844    2.40150360587285
N         1.13648681576164    1.58828853252129    2.11739073861887
H         3.05409002551711   -2.63127259787890    0.10391586387678
H         4.55686909654664   -1.92231626290264    0.13266703242972
H         3.57291344990578   -1.83454927084373   -1.30391366403899
H         2.02658476108520   -0.12598940725955   -0.09708164218097
H         3.69540986082109    0.34475073363316   -0.01038935436185
H         2.60502005169368   -2.42871810404224    1.97381247867772
H         1.13073813061859   -1.54873511731776    2.31804890436533
H         2.49931977360197   -3.34154213360475    5.21955015002668
H         3.06765953458358   -3.74360052188740    3.63411022323255
H         1.27909774555815   -3.56925584337296    3.90038380869562
H         4.03799461313801   -1.66983153603796    5.26911340927109
H         4.91777286207950   -2.22633490709769    2.97545337510167
H         5.67605320771701   -0.72283926086151    3.69782675953511
H         3.22450078139031    1.84883726594857    1.97340343397391
H         0.44959237152496    1.09549872789220    2.69963162570471
H         0.83090128348628    1.47848289405151    1.15403773227724
