32
 energy: -49.315560089118 gnorm: 0.152446886976 xtb: 6.4.1 (79825abcba525fcdf90b791dcacef51065a7a4e7)
C         4.06616733765969   -0.19152617467478   -0.44364515558820
C         2.85591166881617   -0.69923131183699    0.33084744767547
C         2.99445775943910   -0.64713171222077    1.87656483289945
C         2.16567302074608   -1.84346862000295    2.43466738123485
N         2.11795992735172   -1.75652903140257    3.91193399689223
C         1.75492285166629   -3.03664208662768    4.50308205511960
C         3.36054893608305   -1.20366251856988    4.52689853259851
C         4.55810805426634   -1.43057616378971    3.56286047501843
O         4.39303436432345   -0.84526562738742    2.23962960150743
C         3.10230266664623    0.26191633065824    4.65882183257080
C         3.05495445209473    1.17142710591292    3.64383284531992
O         3.30457581569700    2.40575918360706    4.14671891459974
N         3.57295455443035    2.23798970803364    5.51663316450424
N         3.46691755255809    0.93526159688817    5.78431967580737
C         2.55628984388759    0.84610368739822    2.28577263593529
N         1.10370786765265    1.10013080283489    2.33858010785814
H         3.80658280896663   -0.15306296157463   -1.50742015822657
H         4.94295030689542   -0.78674880276216   -0.17765240834148
H         4.20794582100258    0.84446333861399   -0.12206667678111
H         2.55507525042684   -1.68354781694827   -0.04491486717509
H         1.97290162362996   -0.05894240961989    0.21280324948086
H         2.66236717471119   -2.73256682608239    2.02372709298078
H         1.12270693096634   -1.78547342664582    2.10318253698384
H         0.79474733099926   -3.43450196135396    4.15357505024061
H         1.76250855239434   -2.94498666687409    5.59365999488766
H         2.48682249160096   -3.83727514539165    4.35487531476747
H         3.43393997027410   -1.76105118067875    5.46827217841907
H         4.61960674952025   -2.52377498009421    3.52041726071252
H         5.46277990215658   -1.00069261381141    4.00759447193138
H         2.96780226307106    1.53289527616728    1.54090968378655
H         0.64749234838838    0.49332603687711    3.02946765023335
H         0.58014106075576    1.02621556695699    1.47030414655463
