32
 energy: -49.309267575044 gnorm: 0.147105840317 xtb: 6.4.1 (79825abcba525fcdf90b791dcacef51065a7a4e7)
C         2.84032020533350   -1.36770718827616   -0.60770703533086
C         3.07168151046465   -0.14096929543583    0.26631136672233
C         3.10407685728939   -0.37073556886759    1.80166462114376
C         2.49614354250001   -1.72405367710293    2.27971460651187
N         2.44212033916265   -1.70824879153347    3.75923594316561
C         1.86564295380648   -2.92171046728128    4.32059675371393
C         3.67565634676979   -1.18620407618024    4.41781656355778
C         4.80038238534603   -1.24002465774131    3.34678822614422
O         4.51059368820011   -0.41066688529256    2.18533831727864
C         3.40618857730279    0.21750909216195    4.85254948458151
C         2.90458016708999    1.08894967971803    3.93133579782212
O         2.85882112284984    2.30531439713379    4.52895098242167
N         3.36827084048343    2.19317573412807    5.83460204785302
N         3.67394861381549    0.90466200885126    5.99675605235874
C         2.47706211493153    0.92489249787294    2.52096605311927
N         1.01020212553644    1.02307549554470    2.39449600759636
H         2.94861049741003   -1.11169777243610   -1.66752456341945
H         1.87466133433267   -1.76539611082787   -0.28655759961654
H         3.56798472265178   -2.17336908047195   -0.47279450589494
H         2.36112907618479    0.65182575432010    0.00713942237934
H         4.07146117749406    0.30057030447410    0.17094654039248
H         3.17187555061091   -2.49048112371612    1.87716293222045
H         1.47835022170792   -1.90909444526985    1.91794039657833
H         1.18305156427124   -3.41857939473110    3.62090044856156
H         1.43558631503494   -2.61984863033452    5.28067446976772
H         2.60323154680240   -3.65664378700145    4.65896297301623
H         3.99560576197904   -1.82139300806357    5.25233444753071
H         5.14577993377821   -2.24470156154994    3.07847495615676
H         5.70379285745240   -0.67988364533847    3.61345452752932
H         3.03859608102238    1.77309497103791    2.11962060299137
H         0.60130459305548    0.28382727921446    2.97757842541590
H         0.82452755665216    0.94595941460124    1.39796859573617
