32
 energy: -49.313292080551 gnorm: 0.160248620642 xtb: 6.4.1 (79825abcba525fcdf90b791dcacef51065a7a4e7)
C         3.90880372746397   -1.35724794887676   -0.38878830565024
C         2.98175913686783   -0.32728129566390    0.24530877386065
C         3.11094915530714   -0.39726912147302    1.79112999998922
C         2.40098077557781   -1.68794646138485    2.30071956185086
N         2.32422173432656   -1.59082763462181    3.77612719398679
C         1.93314273568423   -2.84682724557985    4.40019736753758
C         3.62781214723213   -1.17757203732818    4.37424262235850
C         4.80251312977641   -1.15782548694376    3.35704317799289
O         4.47034540642589   -0.22386968891907    2.29019320040072
C         3.36296958225385    0.25567811680809    4.70237167505075
C         2.78504793678608    1.12710380679679    3.82699850425630
O         2.63407929956572    2.35753780754250    4.37656338559493
N         3.09627919511243    2.21067771416003    5.69627629752071
N         3.43267752724581    0.93292511671006    5.88116790420605
C         2.38545704952168    0.89497189426907    2.41800199394656
N         0.91797995363253    0.77333681956565    2.51302147974761
H         3.51095438022745   -2.37812415541094   -0.39169854434755
H         4.82234623722918   -1.37828016500968    0.21020102949867
H         4.13425501119195   -1.06488924508797   -1.41858742890022
H         1.96211185784509   -0.63263642113472   -0.01479991189859
H         3.24298315254092    0.66809890668828   -0.13494286497300
H         2.92666245904599   -2.53955683726811    1.84851257328604
H         1.35191099245945   -1.68491750176798    1.98375373999885
H         1.05311642192717   -3.20351379008727    3.85182426765113
H         1.66512817977314   -2.84077116737546    5.46130528946356
H         2.65928168599736   -3.66619617388871    4.40371909131494
H         3.95110376391544   -1.66649326069019    5.30089859056041
H         4.96901213338983   -2.17458630167459    2.98402482398304
H         5.68837803175067   -0.69457181829153    3.80610750183772
H         2.54319101312519    1.85653944938264    1.92166156723330
H         0.59839103900824   -0.02220701524704    3.07750633710976
H         0.54483055775261    0.69568967363920    1.57056762577343
