32
 energy: -49.323879202646 gnorm: 0.138878700988 xtb: 6.4.1 (79825abcba525fcdf90b791dcacef51065a7a4e7)
C         3.68469105934978   -1.41791111976387   -0.50553575412472
C         3.06765590815992   -0.27450436080591    0.29083770867543
C         3.13901350812664   -0.38227058361977    1.83823751780938
C         2.44241568012752   -1.67819571685710    2.35293562498074
N         2.44084610189866   -1.71190197324196    3.83314274686620
C         2.04625228511246   -3.02253914347195    4.32959748885052
C         3.65151068186594   -1.10025877400889    4.45608262498713
C         4.81746874009026   -1.19845088424133    3.43338660394323
O         4.53468531673655   -0.38138420224177    2.26154477337879
C         3.28581276970036    0.32532168297057    4.71299054926241
C         2.73712671277747    1.18893790701627    3.81145574150494
O         2.50703163498602    2.35712539094891    4.46043585768817
N         3.03798249703723    2.26564428899066    5.75911256594994
N         3.43941879940150    0.99959959639356    5.88552530396991
C         2.41237803907119    0.94510055650872    2.38530324519615
N         0.93842357962031    0.92041526821180    2.32079185440638
H         3.06184407163054   -2.31521296571900   -0.41956000312093
H         4.61558327635954   -1.71621509770891   -0.01743237145928
H         3.86887820595232   -1.11394931542741   -1.54017117017769
H         2.03794251974981   -0.09939591150917   -0.04023059694609
H         3.58278246031724    0.63956931481419   -0.02966969999267
H         2.81513358113754   -2.61542134392748    1.91846799990791
H         1.35828480279649   -1.72180717053879    2.19872084145122
H         0.95726441773760   -3.11731946823586    4.24295584606594
H         2.16336162089803   -3.12449106941354    5.41297632838926
H         2.55604612587774   -3.88393756314467    3.88602267051126
H         3.91648203146185   -1.48287027559163    5.44888237624294
H         5.02807032274320   -2.24668220699805    3.19354241861098
H         5.75326857437590   -0.77971047776463    3.82062618700412
H         2.72269843337258    1.81279053471363    1.79652369981786
H         0.58951921095065    0.22576184292196    2.99115935570461
H         0.59325219205585    0.74865849603076    1.38012977786729
