32
 energy: -49.317220651095 gnorm: 0.145931964582 xtb: 6.4.1 (79825abcba525fcdf90b791dcacef51065a7a4e7)
C         3.87682200642134   -1.31194703950572   -0.50969672394867
C         2.93544074671180   -0.42749834568520    0.29892798064519
C         2.96629407686477   -0.40534415102148    1.85125168873150
C         2.23758006100792   -1.66925244535676    2.39997412976558
N         2.37102631603204   -1.79787729973784    3.86891913403936
C         2.06225429313193   -3.09605313804074    4.45144870741084
C         3.60014454505632   -1.17237290060227    4.43978061669467
C         4.69673007720959   -1.19761869477982    3.33893100956297
O         4.36532144662801   -0.29222667595690    2.24750473282647
C         3.30465306834914    0.26593289703755    4.71542076726967
C         2.87042202128977    1.15218073263903    3.77432431148225
O         2.73382169049539    2.35287315584312    4.38951452063900
N         3.18150992939336    2.18995810726085    5.71234207227719
N         3.52604745576552    0.91364064967379    5.89208658675902
C         2.39458371105865    1.00359402261796    2.37778244428834
N         0.92758048463147    1.15868169807990    2.41187299314372
H         3.66683654125325   -2.38550835055469   -0.44762405218112
H         4.92522238947874   -1.21407013303369   -0.21803383601651
H         3.77946214906245   -1.05743079338870   -1.56919220077350
H         1.93632329757814   -0.59448697335693   -0.11875368496342
H         3.27921801314896    0.56932024660976   -0.00402570544127
H         2.63476738526189   -2.51543688372894    1.82353094041513
H         1.19644877282202   -1.56355664554367    2.07455447549300
H         2.60613055246639   -3.10442195486866    5.40355859420267
H         2.31133754707194   -4.01230624594413    3.90715442092455
H         1.00624076473450   -3.04838834717615    4.73643838147800
H         3.96661394764569   -1.60558824798585    5.37801158805903
H         4.88373805756738   -2.24214704742043    3.06569905098232
H         5.67207943716454   -0.85308044861672    3.70087904032602
H         2.89422665642940    1.73743490583421    1.73928382971246
H         0.58409697794892    0.60771442533496    3.20693548797646
H         0.54360968589783    0.91634576499014    1.50229697168724
