32
 energy: -49.316940757138 gnorm: 0.140682773981 xtb: 6.4.1 (79825abcba525fcdf90b791dcacef51065a7a4e7)
C         3.63600753176487   -1.48329081329435   -0.34048713199794
C         3.17043148302444   -0.16514589319689    0.26618823440530
C         3.08143777983929   -0.28848704662250    1.81150978881684
C         2.43257240811629   -1.63624646161420    2.24980524044454
N         2.26226466999027   -1.67067743340194    3.72016624256671
C         1.93375208123238   -2.98865429860950    4.24453046955874
C         3.50662130475520   -1.13620651557520    4.34769122593628
C         4.72476303596790   -1.18080747120796    3.38376773303557
O         4.48242749762082   -0.35062846440579    2.21207920835138
C         3.31031514262130    0.29368958998075    4.73353740336313
C         2.81624499218676    1.18172911000309    3.82417781927869
O         2.77762571506251    2.40608299176996    4.40576792059714
N         3.28793238256119    2.23737332551105    5.70498420536846
N         3.64421728539494    0.96245246177556    5.87123192370314
C         2.28437044398965    0.95003826651188    2.45953204317817
N         0.83184517121699    0.76727620651923    2.64414291542560
H         2.86261621801296   -2.24399489228251   -0.18661711037667
H         4.56454690550266   -1.87678522888174    0.07994986568480
H         3.78173415690031   -1.47888359062804   -1.42470687632154
H         2.18414990874029    0.11635628174330   -0.11927776194283
H         3.91767904902647    0.62226529831305    0.10739358573114
H         2.91764987010111   -2.56741800951474    1.92779277851748
H         1.42854200718660   -1.64222828838679    1.81058879221467
H         1.87606397916262   -2.81085831747400    5.32501431133133
H         2.71379536006453   -3.75531040056991    4.20466314288568
H         0.97611030893925   -3.24736222145710    3.78122920008950
H         3.73576769426157   -1.58620302796095    5.32095778190744
H         4.92363884371019   -2.23470364256223    3.15922723172392
H         5.63160027868831   -0.77536339685542    3.84667233142170
H         2.59156944294752    1.85903172345282    1.93493156424366
H         0.82940689319064   -0.18155659339971    3.03578127125986
H         0.38285272571576    0.83030160583960    1.73424050307722
