32
 energy: -49.313635944281 gnorm: 0.153147325850 xtb: 6.4.1 (79825abcba525fcdf90b791dcacef51065a7a4e7)
C         3.54547756634154   -1.56271817080920   -0.39793367376737
C         3.04760859059437   -0.30641018538294    0.30643754742939
C         3.09347548791547   -0.37997562647784    1.85680395214097
C         2.27566402402176   -1.57666554428979    2.43012958063650
N         2.36144006539767   -1.63164048345933    3.90721181567977
C         2.05562343346900   -3.00563110361642    4.27945817691764
C         3.67045758346896   -1.15337446490144    4.44163204253374
C         4.79099293404074   -1.29763891309571    3.37458221570533
O         4.48460642460759   -0.36988166022226    2.29468801181094
C         3.40963444808644    0.29933622933522    4.67319027223939
C         2.96734880504268    1.22928760818503    3.77919462479503
O         2.68967316873202    2.40167502380507    4.40143648136809
N         2.91634186302219    2.13739104450772    5.76364574840849
N         3.32080505222183    0.87379432242983    5.90412101908808
C         2.53222280212448    1.03630215799334    2.37482598402790
N         1.06373549780357    1.17285796291508    2.32781130266373
H         2.84234274919966   -2.39403346701961   -0.27547098538961
H         4.53279476267600   -1.80468551645522    0.00262475189371
H         3.74336879646865   -1.22275935101848   -1.41874471976289
H         1.98771876101114   -0.17483671496302    0.06169108900716
H         3.63296625067196    0.52323557176358   -0.10908065138147
H         2.74823477598362   -2.43738631589072    1.93828684933080
H         1.21009593332477   -1.52399917104300    2.17950074204924
H         2.33497486304681   -3.32830469031466    5.28952213227020
H         2.50709350095104   -3.73222490161428    3.59677616211995
H         0.99387966272893   -3.27228307009820    4.26356749449374
H         3.84718836876101   -1.63930906705609    5.40852733871109
H         4.92540475080559   -2.36559258595101    3.16945888199724
H         5.74062197965286   -0.88986543450793    3.73919820433709
H         2.86721521774329    1.92861053159012    1.83871792998729
H         0.65008543035265    0.42836037088150    2.90077481292955
H         0.89392014744206    0.92367756960481    1.35695564791860
