32
 energy: -49.317522708134 gnorm: 0.140239953794 xtb: 6.4.1 (79825abcba525fcdf90b791dcacef51065a7a4e7)
C         4.15533856872363   -0.17406615276173   -0.35151996991453
C         2.91207443587632   -0.76277613404206    0.30425205521083
C         3.04688711250391   -0.64629309586180    1.84678532395449
C         2.27127621164401   -1.89409872073774    2.36735567038594
N         2.15025680594086   -1.62110581803204    3.81752148215330
C         1.50180644948152   -2.77252387084051    4.42882336265692
C         3.40174029850992   -1.16476580516945    4.49088102426192
C         4.58910964353863   -1.46079657288908    3.53300480351084
O         4.44157530408635   -0.79294736431574    2.24731870108029
C         3.30608509664043    0.30966573581081    4.71205512692459
C         3.00283878494515    1.11760858132463    3.65615531847279
O         3.08047344933938    2.40001428578305    4.08996333960070
N         3.50975468856998    2.36987806604575    5.42848798529457
N         3.62874904623643    1.08858766741500    5.78081695693183
C         2.42987849026471    0.75663657714896    2.33697185899371
N         0.96580772336362    0.71347278147115    2.51570769767486
H         5.03674041505365   -0.72054512731622    0.00199427359032
H         4.31360800047236    0.81632376641068    0.08191871272761
H         4.10812680584616   -0.04057741513126   -1.43629641454992
H         2.88972951001255   -1.85380639266207    0.20559841014970
H         2.00478923543359   -0.23638601558390   -0.01724142441316
H         2.89224645199511   -2.75865866610485    2.09716186323755
H         1.30122713468097   -2.13119045476547    1.91589558345116
H         0.60377702832628   -2.98691803534694    3.83724668844197
H         1.32205380559743   -2.54463815930844    5.48408427451253
H         2.15247427989495   -3.64999206771635    4.35577161339871
H         3.60131824429459   -1.69063304246111    5.43209566936426
H         4.72295313008653   -2.54007513841545    3.39917332998063
H         5.47093806344161   -1.03269794127961    4.02303496070351
H         2.60404954337143    1.58209808161730    1.64118184732063
H         0.74073563887837    0.11450971960301    3.31836331067705
H         0.54474338060101    0.31782572344965    1.67925265214614
