32
 energy: -49.311915369220 gnorm: 0.147329842037 xtb: 6.4.1 (79825abcba525fcdf90b791dcacef51065a7a4e7)
C         3.42140344604831   -1.46290358407920   -0.31050468825172
C         3.04697269424345   -0.14242139474587    0.35165125758054
C         3.14740015032548   -0.31316541972652    1.89175269739333
C         2.39904369465841   -1.63289189617391    2.24934081257010
N         2.19836470671876   -1.79585961378154    3.70718893854077
C         2.07476849917430   -3.18572630725043    4.12304460566492
C         3.32916703683688   -1.17442976204867    4.45750969085784
C         4.62648007943889   -1.19262061347018    3.60214135183105
O         4.51643242295545   -0.39664827175774    2.38760636136729
C         3.13806546487511    0.28124642013255    4.73410199959694
C         2.76981896176920    1.22144371253855    3.81754434945886
O         3.00864043850380    2.46354368026043    4.30635197627674
N         3.54389229744777    2.26200205024461    5.59076827218952
N         3.63622566525309    0.94929722587248    5.81049774229014
C         2.40964416628094    1.02633539784032    2.39240009412398
N         0.93511698524231    0.98060614897936    2.36091591395130
H         2.61313877824918   -2.20231093963836   -0.33208693835471
H         4.27413033728348   -1.86177177538518    0.24406858201998
H         3.91916663205520   -1.22973488949656   -1.25636530194288
H         2.00303710890306    0.09834564483632    0.12185007304603
H         3.84319905779103    0.57955968154055    0.13170136232213
H         2.98106360344684   -2.49531271335579    1.89783578096293
H         1.38405761696825   -1.66607956538152    1.83736295472499
H         2.01677250480316   -3.13266770888589    5.21675659282060
H         2.92596224997155   -3.86014864669363    3.98724252286505
H         1.13617329271649   -3.58598990165326    3.72620242957043
H         3.43910431360233   -1.67555147947894    5.42655227732246
H         4.91049538159084   -2.23090191003828    3.39726474745909
H         5.38059127118749   -0.66927271036601    4.20084214295984
H         2.71386592502263    1.90020907711097    1.80961376589966
H         0.63041034015648    0.31024357174704    3.07606492058760
H         0.68303263228583    0.71965093745704    1.41126088378038
