32
 energy: -49.313900185407 gnorm: 0.146296459283 xtb: 6.4.1 (79825abcba525fcdf90b791dcacef51065a7a4e7)
C         3.77245766824830    0.31316821579445   -0.37818440514890
C         3.01343015327795   -0.78409640367979    0.35816447575190
C         3.12544326069641   -0.70375145909831    1.90482196427677
C         2.28974045826980   -1.90187768501286    2.44858570118845
N         2.22195134264487   -1.72340927054584    3.91681775299349
C         1.26836544439797   -2.63809374138072    4.52834667783526
C         3.53640828184763   -1.31723379004609    4.49569134807519
C         4.72894991905482   -1.64242013033831    3.55382865914846
O         4.50722642155911   -0.86428621672344    2.34299258235712
C         3.54529792090886    0.17009448000364    4.63637491709816
C         2.92356890637052    0.99581873864111    3.74683185903329
O         3.01894717904434    2.28101680363795    4.16867288402009
N         3.63285252216028    2.18264800910133    5.42973696414145
N         3.92526129767658    0.91202298078488    5.71259663722714
C         2.47766847355991    0.69551174136364    2.36487028421537
N         1.02036465416624    0.86714892029129    2.20956715933067
H         4.33987043810064   -0.04142482039097   -1.24581758189173
H         4.47254080825414    0.77917029014580    0.31932269788341
H         3.08996110548629    1.03213506810908   -0.84086489422450
H         3.39976057762702   -1.77039868271004    0.07792265989691
H         1.92852133786036   -0.81462429608374    0.19800218271174
H         2.70965129025716   -2.82548490689954    2.02823201713951
H         1.24926174110620   -1.80926892062652    2.11714705795511
H         0.28222134142036   -2.42350387481562    4.09956275264392
H         1.12112085292531   -2.41977883492645    5.59064424945738
H         1.58581724125542   -3.67124312412933    4.35375479393193
H         3.58692080864148   -1.80085419909618    5.47844894812636
H         4.79647784093781   -2.71827875839347    3.35726986815000
H         5.58979741623127   -1.16534717662870    4.03586842954660
H         2.84372128716162    1.49472471430321    1.71440125628719
H         0.48331060986504    0.17928808717592    2.75002127118600
H         0.70956825502170    0.83958380112769    1.24202668206040
