32
 energy: -49.314171636973 gnorm: 0.150205053162 xtb: 6.4.1 (79825abcba525fcdf90b791dcacef51065a7a4e7)
C         3.83242638245795   -1.41119376337818   -0.31153857158759
C         2.93851832009140   -0.33419383877454    0.29122309816181
C         3.01937617187493   -0.36559763387527    1.84158674887169
C         2.37591698123783   -1.70204762886966    2.32059228585840
N         2.39854367638222   -1.74927028067211    3.80025770635429
C         2.10991192338026   -3.05984417576194    4.36508437627886
C         3.61533692157263   -1.13326002133653    4.40673589151730
C         4.79519293843825   -1.08543039005105    3.39645912362576
O         4.42972479127861   -0.32315771521840    2.21064669838466
C         3.19688502003721    0.26491760209226    4.72613161369321
C         2.70745628532859    1.18488762453599    3.84649018162762
O         2.63325745706181    2.38730102399307    4.46896707401547
N         3.20878355745773    2.21093736287170    5.73959855870035
N         3.49191393605059    0.91529587913998    5.88503165501209
C         2.33970663609780    0.97069225429636    2.42602905030616
N         0.87537741902318    1.07219235143341    2.27519639014670
H         3.31505210450995   -2.34677105874756   -0.55132969786347
H         4.73237182547189   -1.74239360153230    0.21209809690137
H         4.20792616663709   -1.19430189663153   -1.31590203096761
H         1.90639600295942   -0.59954378259458    0.03648442990818
H         3.20713904032533    0.63925656850595   -0.13755220446303
H         2.95843112315899   -2.56773241645272    1.97804338065562
H         1.33425223918106   -1.85542721020370    2.01656402205242
H         1.06079473046311   -3.28156708234255    4.13578821383006
H         2.29322271613946   -2.74036072708472    5.39568904673619
H         2.76398909573002   -3.86269723776071    4.00974561769050
H         3.88170494360241   -1.72431115740351    5.29102054825309
H         5.06563901535084   -2.13576685601388    3.24051234917591
H         5.69382293918648   -0.58619059238328    3.77625262067545
H         2.81864242109786    1.74674176339564    1.82252787374620
H         0.41322468449369    0.41113399255168    2.91008765555673
H         0.53147294028834    0.95130076400947    1.32619494258672
