32
 energy: -49.320112479786 gnorm: 0.149012664563 xtb: 6.4.1 (79825abcba525fcdf90b791dcacef51065a7a4e7)
C         3.86859753580836   -1.33417199085264   -0.32329468401654
C         2.90718216526393   -0.35751647576217    0.34314855122622
C         2.96511934992512   -0.34545464451134    1.89480877482009
C         2.27919849955745   -1.64655988512977    2.41077618957445
N         2.27684686356767   -1.77585400095773    3.88570981509886
C         2.00140715101044   -3.09488867577960    4.43727293499093
C         3.56154229618280   -1.19450947720052    4.37506286953554
C         4.71177292332538   -1.28025635335267    3.33361002653542
O         4.38129415099425   -0.37447795590446    2.24222238336268
C         3.32452497057012    0.25619747742049    4.64206176556403
C         2.81240331656537    1.18680629009284    3.78686995351151
O         2.77872798659502    2.38285320796415    4.42492848299661
N         3.23956761509739    2.14981343377700    5.73265861804570
N         3.51975093206510    0.85077483574152    5.85096534413690
C         2.45830687628550    1.11269417437700    2.34883225523293
N         0.99003926984453    1.23774142117814    2.27224074680230
H         3.65661362910844   -2.39206836282760   -0.13250974492275
H         4.88524765447803   -1.07483203781224   -0.01840811286169
H         3.88884610488874   -1.26541224351441   -1.41492201149564
H         1.87133784880244   -0.62772653720101    0.10949937717242
H         3.13879950884982    0.62962923036912   -0.07578797385505
H         2.61538005948029   -2.53375218298305    1.85765376800282
H         1.22960862937735   -1.58904534665213    2.10081311928187
H         2.28233683889848   -3.11200472327060    5.49707018494264
H         2.57718473901353   -3.85892205417673    3.90571704259208
H         0.95064500156689   -3.39113485931830    4.35485495995515
H         3.95369326837966   -1.60899807317879    5.31136920010434
H         4.83568770318386   -2.27775894162524    2.89737513081764
H         5.63003361229438   -0.97269993913092    3.84666530205561
H         3.07203378156916    1.81376835724584    1.77639860996236
H         0.56450768745982    0.51658310674942    2.86597788212572
H         0.58546968398818    1.11200449970425    1.34811819296062
