32
 energy: -49.314389625394 gnorm: 0.144739183157 xtb: 6.4.1 (79825abcba525fcdf90b791dcacef51065a7a4e7)
C         3.48737219906942   -1.60479215865075   -0.43698771973889
C         3.12704679261142   -0.33157391124847    0.31892429453908
C         3.08059225084599   -0.35898554651393    1.87077550826753
C         2.37175124213222   -1.63819092259444    2.40999960652040
N         2.30671784349543   -1.70829158254116    3.88750028211597
C         1.96295616227583   -3.10739340483054    4.09793644521278
C         3.54285328009609   -1.12539124440124    4.48755576735989
C         4.71513402070859   -1.17220149005622    3.46845140526795
O         4.46907320718271   -0.31767348219946    2.31518922330620
C         3.25380999757789    0.31891547315922    4.73745245243250
C         2.76456642518907    1.20932424618736    3.82780015953087
O         2.86872545772544    2.41694299850285    4.43573828069676
N         3.38478158262629    2.22533996616443    5.72949759053229
N         3.60281711991637    0.92117559338488    5.90730715770948
C         2.40179126383141    0.99836912446691    2.40557606469268
N         0.93297380271289    1.11664799188368    2.32877649245525
H         2.59127409660013   -2.22466227897623   -0.55209647537568
H         4.30883549241837   -2.13754132624473    0.04795235327671
H         3.87335239496990   -1.28089752721132   -1.40801793724740
H         2.13277453601253   -0.04158545665818   -0.03871830236435
H         3.86740343192365    0.45327913007987    0.12020641351120
H         2.87655111789806   -2.53058666219341    2.01645221005453
H         1.30045935067441   -1.74741445980887    2.20646137590787
H         1.53007956451212   -3.29515416211277    5.08775885696217
H         2.82402371983121   -3.78071214226382    4.04295426675110
H         1.27060555537118   -3.38475661779357    3.29645288048918
H         3.80471830308718   -1.54816314177241    5.46476779588607
H         5.04239606056219   -2.16946881810531    3.15376966624505
H         5.55794674910645   -0.67177986432191    3.95861898594115
H         2.82776772770952    1.82456974866642    1.82957036207031
H         0.37220596250460    0.70756442070350    3.08499093043672
H         0.68884852914155    0.85092119387395    1.37836556296448
