32
 energy: -49.311955100830 gnorm: 0.138394737048 xtb: 6.4.1 (79825abcba525fcdf90b791dcacef51065a7a4e7)
C         3.48946239891184   -1.42029308692546   -0.50736596016466
C         3.19467458925571   -0.17514974031779    0.32030563731386
C         3.17392710910972   -0.37943711402986    1.85945729534166
C         2.48044205001905   -1.71011817735960    2.28129966974819
N         2.37054670144099   -1.65822387648938    3.75689503563674
C         1.74103964028357   -2.91607999250780    4.13300701708708
C         3.57345898591743   -1.15634195485440    4.48420980072325
C         4.84694721218962   -1.15326553608601    3.59357783577449
O         4.53320354414482   -0.39944959098420    2.38771543741118
C         3.32012720159326    0.29765995085776    4.71598064422688
C         2.86295984230033    1.18880788704201    3.79050362573951
O         2.90505750448602    2.43440751104865    4.32481653083073
N         3.31697910675077    2.30105581452232    5.66249239449839
N         3.57329433104876    1.00537419057139    5.85093888342211
C         2.34020334375020    0.86819993522918    2.44040531499835
N         0.88660331083194    0.65387803983774    2.57614724871487
H         2.59594684452716   -2.04066603745625   -0.63869820018405
H         4.37844138912003   -1.86340755613705   -0.05222156978728
H         3.69444108505796   -1.07948087232810   -1.52649249789763
H         2.22517370202292    0.20450842611440   -0.02102493052849
H         3.99061549736067    0.54299396068179    0.08715602744657
H         3.05297829228587   -2.54596391499042    1.85746387978944
H         1.44851694023884   -1.81116842931491    1.92641472425758
H         1.42950122722067   -3.05449698707821    5.17520143541321
H         2.29057540183540   -3.77492727906869    3.73525045450408
H         0.74103335171288   -2.99284936693215    3.69397455546906
H         3.59766311169088   -1.68966623289149    5.44193214260025
H         5.27423183180799   -2.12277761032603    3.31404009205131
H         5.58734047905321   -0.50442593226229    4.07507999511064
H         2.52638282159916    1.77291552976357    1.85502263953744
H         0.62426650149849    0.06473699382772    3.37474755172606
H         0.34301485392210    0.29231223440520    1.79687158118605
