32
 energy: -49.315986081866 gnorm: 0.143777306201 xtb: 6.4.1 (79825abcba525fcdf90b791dcacef51065a7a4e7)
C         3.53005109038816   -1.49923116452543   -0.47850050769435
C         3.07822497230012   -0.25231456358131    0.27208208896368
C         3.17670764897955   -0.35430048036431    1.81838466721110
C         2.54154213647057   -1.70426971502813    2.26975198159458
N         2.48134511029049   -1.68494869859711    3.74899324005952
C         1.57417163958086   -2.64243430412647    4.36559601228481
C         3.71783363592301   -1.24340328875553    4.45892561987604
C         4.87516861228027   -1.11624053077019    3.42964799915431
O         4.57489722418369   -0.34231903934976    2.23312791386643
C         3.37698883910683    0.18082112965984    4.75460433272044
C         2.81124371212879    1.01490500317421    3.83596898637647
O         2.66716645156070    2.23165737536559    4.41694777235081
N         3.18172084124704    2.13221849488031    5.72162569900293
N         3.63997362299343    0.89009526143114    5.88635185592049
C         2.38928002250214    0.91441172157781    2.41798555051439
N         0.91645227840412    0.99242871608337    2.46275825444736
H         2.76784391003212   -2.28610314007574   -0.49730237011360
H         4.42634579929722   -1.90914124852763   -0.00688624579432
H         3.85163258074949   -1.18745248999965   -1.47658243362883
H         2.08066423354421    0.00424528953713   -0.10158683582984
H         3.68154427705767    0.63199385791301    0.03204983832146
H         3.13443134121274   -2.49666799918916    1.79366378368642
H         1.51833643430234   -1.85319469487075    1.90657798582512
H         1.24094985258336   -2.26453694631699    5.33952695581767
H         1.98648798242038   -3.64314934826756    4.52802486090316
H         0.71141208333081   -2.82139870927719    3.71577041595498
H         4.01294894203541   -1.81064692514431    5.34965246803620
H         5.20449769758718   -2.12718612177638    3.16469794112898
H         5.75721304881295   -0.62447660303751    3.85530655183106
H         2.76364593535984    1.75896098493266    1.83280806408328
H         0.62070797928339    0.37644698634199    3.22876872671223
H         0.42982279508113    0.57387770624369    1.67440832515270
