32
 energy: -49.319057438108 gnorm: 0.142684457556 xtb: 6.4.1 (79825abcba525fcdf90b791dcacef51065a7a4e7)
C         3.43182967864035   -1.34723470762485   -0.52687312652423
C         2.87207174652838   -0.21073521142956    0.32009914860889
C         3.03817626705254   -0.30121805683417    1.86132391189032
C         2.32821507625205   -1.59095158097844    2.37330748073749
N         2.21573030826798   -1.63322834123428    3.84901462009970
C         1.79904581104358   -2.99797585557700    4.13846175293558
C         3.56073765936627   -1.22574562220523    4.35179020327251
C         4.72921573025714   -1.28074399108574    3.32873535973377
O         4.44974164215592   -0.37911595451709    2.21979946462018
C         3.38657107481584    0.21614295647865    4.70198959044321
C         3.01709074953518    1.19886350225685    3.83170286144783
O         3.14165677061775    2.40976051387092    4.42919148732899
N         3.65526334302956    2.15586177457680    5.71316287360316
N         3.74094951086845    0.83286898626072    5.86265672405282
C         2.38581226926749    1.02308551158001    2.50150781309648
N         0.93167291739353    0.91027592593152    2.72526117020758
H         3.21647516017664   -1.29001376411809   -1.59964010753182
H         3.07839013171896   -2.33683008385184   -0.22758735931012
H         4.48373722162294   -1.35670435345740   -0.22655833198836
H         1.83330756373074   -0.02438949823697    0.02544155378576
H         3.44110420320626    0.67549027006950    0.01282482976835
H         2.93488087945043   -2.46842848552510    2.11241761903681
H         1.32914266089624   -1.58980871541858    1.92288887068381
H         1.04071257192286   -3.25233815225443    3.38838496905326
H         1.26919082827564   -3.03042844384919    5.09555058390578
H         2.62474260765369   -3.71631224090664    4.16801268236080
H         3.72329445074302   -1.70142126180269    5.32624425539758
H         4.96556847391493   -2.29602135303228    2.99107218052707
H         5.62876061536828   -0.87023568294185    3.80130417403129
H         2.52274391620491    1.86049401238812    1.81169427639602
H         0.72220461833377    0.22572000071497    3.46090812424923
H         0.41070502387971    0.59462835051509    1.91135215959359
