32
 energy: -49.314253145056 gnorm: 0.151810560476 xtb: 6.4.1 (79825abcba525fcdf90b791dcacef51065a7a4e7)
C         3.36062825378399   -1.56663898928888   -0.25454927227081
C         2.86469500734802   -0.24519618561110    0.32004730719467
C         2.94214391142499   -0.28391033222290    1.87041969128240
C         2.09796544943118   -1.43809531525351    2.49074571144320
N         2.30482277535786   -1.79657720521735    3.91231261867120
C         2.21654417604073   -3.22508322287640    4.17974266253998
C         3.59584150323468   -1.19893413248217    4.36393593152144
C         4.65828521035508   -1.41013460773454    3.24965824567659
O         4.35647633817440   -0.50469940098968    2.14971452067720
C         3.37343814191420    0.24508138044663    4.67598113816905
C         3.01320034588339    1.23967864356304    3.81536543965797
O         2.98302899978537    2.39090618365619    4.53128846246858
N         3.20631865348847    2.04219628994870    5.87493348386581
N         3.53005072051119    0.74910717774758    5.93077744026073
C         2.58840807946529    1.19544972912920    2.39535676881918
N         1.15699571170622    1.52360889853509    2.25154085229610
H         3.37778614210826   -1.40045672527790   -1.33740192531327
H         2.63128492158511   -2.36891889671390   -0.11965764750998
H         4.32489508833315   -1.84351066010800    0.18170716575601
H         1.92717372456163    0.07913603366153   -0.14518522677192
H         3.62874634040645    0.52306436434655    0.14796492918593
H         2.32975674611049   -2.33579279051197    1.90211622681353
H         1.02428886842618   -1.26921774781112    2.35030753292480
H         1.17912982063660   -3.57968598926289    4.15942046638403
H         2.58277797967346   -3.44049081816941    5.18835104548737
H         2.73440700464001   -3.81800672409888    3.41887773945795
H         3.99830427397680   -1.72444746965960    5.23807102825520
H         4.87131647161934   -2.40757179700485    2.84915369205999
H         5.55183232132600   -0.90614523090919    3.63512890364845
H         3.16313238331639    1.94236920390369    1.84069536669588
H         0.72048202095026    1.14457519489543    3.09975042399347
H         0.90917139575059    1.03612779530341    1.39454954254998
