32
 energy: -49.307107221508 gnorm: 0.156668739388 xtb: 6.4.1 (79825abcba525fcdf90b791dcacef51065a7a4e7)
C         4.04369513599501   -1.21855237864690   -0.41144797910465
C         3.01428926182895   -0.30587525435236    0.24404122769726
C         3.05683903906675   -0.42588957542412    1.79159985526951
C         2.39141549221892   -1.69963242390312    2.39523490659743
N         2.35059033684656   -1.65701595348846    3.87464993866683
C         1.93244598361641   -2.84080658517711    4.61203479422754
C         3.67429208395116   -1.19536761802463    4.38706063915011
C         4.78778228499978   -1.22990545938027    3.30356917468256
O         4.42279539708067   -0.26417543033054    2.27647239665077
C         3.40610418720541    0.24719489203896    4.66831663629176
C         2.76165799451497    1.02985208689721    3.75629076647996
O         2.57513316076354    2.22133578619185    4.37625529790392
N         3.01038431976724    2.11244802076288    5.70874870701198
N         3.56672938117937    0.90779861956431    5.84767473143423
C         2.31556546585440    0.88895616081304    2.34917347108652
N         0.84177050240251    0.95900643900881    2.33089285058574
H         3.61164443035663   -2.22428587620792   -0.45954291883744
H         4.97821201820592   -1.12718952047950    0.14723038968659
H         4.16417366394653   -0.89097383424082   -1.44825333695504
H         2.01997808264569   -0.56203078312270   -0.13846168274692
H         3.12394252396455    0.72691162409850   -0.10942513511824
H         2.83917134691774   -2.60869860528994    1.97193123643150
H         1.32700444467708   -1.81896489175146    2.16325904800329
H         1.23479025072858   -3.38206020119194    3.96187661182877
H         1.57240489548797   -2.47292666945121    5.57787809692305
H         2.75877067236075   -3.54858711031588    4.73405879185280
H         3.93567974868216   -1.80346009984300    5.26121894149020
H         4.73470853854403   -2.26385965470083    2.94469723082325
H         5.73833729435820   -0.80199867469014    3.64174119196062
H         2.72885040929638    1.78947514308162    1.88645636844463
H         0.49971255996683    0.45594314685947    3.15769023367873
H         0.53395929246458    0.75349818494522    1.38405208618171
