32
 energy: -49.313947085185 gnorm: 0.149297443793 xtb: 6.4.1 (79825abcba525fcdf90b791dcacef51065a7a4e7)
C         3.75312197848203   -1.19512395018866   -0.40087598142750
C         2.95487284861702   -0.11472009550721    0.31874053592093
C         2.90868537799027   -0.36986360416745    1.84972719582749
C         2.14751387202899   -1.64908037614817    2.31211990326339
N         2.25881463140074   -1.70622205207205    3.78741602966000
C         1.75272798699268   -2.92923795456196    4.39408710002833
C         3.54758668055422   -1.23500823434240    4.37469308958194
C         4.65847836182586   -1.30022792466518    3.28994744958248
O         4.32299739679247   -0.38813807674348    2.20536350185922
C         3.49101213099119    0.21265821394431    4.73949089620041
C         2.90697842649724    1.06373791115654    3.84829937131262
O         3.04810026562665    2.29121823558012    4.40701003917360
N         3.74907096459357    2.18170703847637    5.62088242788472
N         4.03413222239023    0.88917342657028    5.78850518376913
C         2.26395677515414    0.94454027958890    2.51745589984635
N         0.78918424907801    0.94708145485777    2.56595683344618
H         3.85266984804438   -0.89855687412092   -1.45093264462989
H         3.14532220334583   -2.10204985717586   -0.35780245174916
H         4.70923040793252   -1.34790773135971    0.10834098320884
H         1.94044245325952    0.00298576122843   -0.07831759911021
H         3.48460785580294    0.84198166684889    0.23091335872228
H         2.62126713518229   -2.56335770717599    1.93037727261771
H         1.11763278072356   -1.67201090099360    1.93816396950156
H         0.70737778712725   -3.14023040329504    4.13892087494497
H         2.08406521837422   -2.93692681191954    5.43714751156618
H         2.32747124399300   -3.77536791088182    4.00371560572685
H         3.75742724373854   -1.81137423465254    5.28355055134943
H         4.64015144530296   -2.29293017239288    2.82640290779963
H         5.67634885668173   -1.06764651102501    3.62291125189500
H         2.63962222524088    1.68600093668113    1.80685224455802
H         0.40270997456316    0.35700038597159    3.31168613147858
H         0.48468617094085    0.66067507464426    1.63927397374986
