32
 energy: -49.312984061992 gnorm: 0.147507451851 xtb: 6.4.1 (79825abcba525fcdf90b791dcacef51065a7a4e7)
C         3.78787990524557   -1.30787549305018   -0.57771069147641
C         3.16990793762644   -0.20627970357149    0.27488501901061
C         3.03768350009050   -0.40387330733770    1.80936378898796
C         2.39415653395966   -1.73346274364856    2.30700782406327
N         2.44505121313700   -1.81099456598217    3.78469189952786
C         1.84029864134150   -2.93365122948435    4.48744200319412
C         3.60220727130267   -1.12431868182541    4.43070759850215
C         4.77335044725278   -1.12296466328166    3.40922394186265
O         4.41263703659186   -0.27810913583685    2.27923160636304
C         3.28293263617641    0.30081380877118    4.74547315630509
C         2.83231361264794    1.15225335504818    3.78025423562102
O         2.82236188260371    2.39258234921802    4.32821945903147
N         3.23469764253681    2.25709071136454    5.66555264122120
N         3.47034500924192    0.96820402413546    5.91703201308061
C         2.30340805814024    0.89129889137020    2.41974294376416
N         0.84068770041961    0.75875583105823    2.56184966249115
H         3.43164149070057   -2.28991626421245   -0.24730046497890
H         4.84833704313181   -1.33337369929385   -0.31585005212801
H         3.64955428426786   -1.12783895522508   -1.64787002250172
H         2.13841305765341    0.04390597817608    0.00284771560541
H         3.76289621925306    0.69369543018125    0.06989549615345
H         2.81444958049571   -2.69930732166094    1.99624967453533
H         1.36163296265705   -1.70492454651416    1.94080493374958
H         2.59342411156913   -3.63693765250708    4.86237517980345
H         1.21578338319737   -3.49867390211081    3.78847950794914
H         1.24718162878903   -2.55868374038204    5.32783905674157
H         3.85107060073183   -1.69688804265459    5.33208658651195
H         4.82005261432792   -2.16014756969969    3.05888454004559
H         5.77508775084996   -0.79055712097751    3.70426114123917
H         2.56036905063714    1.64924496163786    1.67453505492159
H         0.66601995316256   -0.10251785972934    3.09229196440256
H         0.42304605874875    0.54026611689387    1.66111300670050
