32
 energy: -49.315310740326 gnorm: 0.143443466178 xtb: 6.4.1 (79825abcba525fcdf90b791dcacef51065a7a4e7)
C         3.49582430837646   -1.29898347128483   -0.56198754829611
C         2.92086705012461   -0.16794064599192    0.28210271323062
C         2.96553508945769   -0.35013489541453    1.82351818947425
C         2.25864240090924   -1.65185000368862    2.30872447456686
N         2.40931770800838   -1.75015600769737    3.77834502972550
C         1.85721644671127   -2.90422820104502    4.47350180968577
C         3.66390154345396   -1.22038390165601    4.38927148423380
C         4.74984432495701   -1.30443601810209    3.28081735541883
O         4.38564545490178   -0.52164144749217    2.10805585026577
C         3.38070684598698    0.19783353552109    4.76407323414591
C         2.96919515662805    1.10965441218115    3.83730724046817
O         3.12396726863919    2.32482214699773    4.41885166722144
N         3.40352795225390    2.10654488798694    5.77938085410764
N         3.58253993333491    0.79812008348429    5.96906399292786
C         2.41405400478689    1.01849503414767    2.46532415721271
N         0.94537133440433    1.07952429250512    2.59400777702713
H         3.42315500043157   -1.00829900711120   -1.61588627121678
H         3.02191893417680   -2.26647015671132   -0.37985104830867
H         4.57268458144308   -1.40982463338399   -0.40427160969723
H         1.85451992780376    0.02455456885318    0.11953497793151
H         3.45574464004181    0.76720586208105    0.07469484111389
H         2.75927708621727   -2.42771356766557    1.71418829039852
H         1.19143402246511   -1.74101391822299    2.07604446127139
H         1.13111665883156   -3.44592134134262    3.85565692851027
H         1.45653117035477   -2.51338801168713    5.41398772583391
H         2.57140665705879   -3.70533149310654    4.68988451524041
H         3.99557342423244   -1.78063914666972    5.27151892446392
H         4.88470311304750   -2.34806685197023    2.97534238210131
H         5.68321102389227   -0.89985276140766    3.68844260802341
H         2.88665161316963    1.81389912651618    1.88237490177408
H         0.47009139613581    0.24854776596233    2.96449018650648
H         0.52301500241687    1.30322893059495    1.69675631717582
