32
 energy: -49.315717740365 gnorm: 0.149662738225 xtb: 6.4.1 (79825abcba525fcdf90b791dcacef51065a7a4e7)
C         3.74208701454542   -1.48881502385196   -0.29684044666897
C         2.79327928554966   -0.50576441011475    0.37821323286049
C         2.94458351235970   -0.39590563358603    1.91970267834514
C         2.10723146877109   -1.55111286689030    2.54733506032849
N         2.34236014704409   -1.81679325430785    3.98479118790974
C         2.29801249387468   -3.24854130412843    4.24569765369351
C         3.58111099533264   -1.12261397182577    4.44466254082742
C         4.72177717388955   -1.23648767603694    3.39541496988902
O         4.37401014100104   -0.49302480075299    2.19246079721898
C         3.24409851461946    0.31180579998375    4.69139874883566
C         2.84050728474867    1.27045116626872    3.80948745650172
O         2.65806317077581    2.41569625037959    4.51227388166253
N         3.16399541102399    2.17973425385757    5.80269757367971
N         3.50307727002515    0.89268001361250    5.89497608704009
C         2.55615130896456    1.10104624791856    2.36405571430631
N         1.15605757258147    1.49921967364826    2.12217089788115
H         3.23549798664746   -2.45649690263976   -0.38309670125611
H         4.73856714292342   -1.59750407893865    0.13790607206441
H         3.84182319465462   -1.20854328672020   -1.34959330284992
H         1.73501992606498   -0.60405591257676    0.11174604655480
H         3.11716617875216    0.42632204871499   -0.10128980421223
H         2.37235897520187   -2.44564660184218    1.96803424821066
H         1.07563529805839   -1.32486160124667    2.25468575106686
H         2.06800489076840   -3.38247836067830    5.30943729553477
H         3.14933989944734   -3.84183751070560    3.89776122651112
H         1.49632583730574   -3.77812289542472    3.72081913470676
H         3.94119267483947   -1.61055468450154    5.35817650080973
H         4.74466275791559   -2.27599050973041    3.04961549569872
H         5.73745740606006   -0.92016056154119    3.65875916696880
H         3.19466665229699    1.83162520699013    1.85967636308393
H         0.49640182185432    0.80691493655795    2.49531787073909
H         1.00116033895998    1.57334161943353    1.12017209466842
