32
 energy: -49.306923929073 gnorm: 0.150215763440 xtb: 6.4.1 (79825abcba525fcdf90b791dcacef51065a7a4e7)
C         3.47966779921867    0.32144896420598   -0.53168455465171
C         3.27691441812603   -0.93377630952401    0.30832893345048
C         3.12633117965668   -0.77503976768972    1.84562494483317
C         2.12636646276433   -1.79351605778160    2.47201238853126
N         2.10366494129766   -1.66185948749082    3.94656414470993
C         1.33557002354530   -2.76025771556038    4.51532851470230
C         3.41391786496620   -1.27583267764720    4.54830394846464
C         4.63328345413364   -1.60545270346510    3.64303866282736
O         4.48332646634725   -0.95404905033563    2.34922109931053
C         3.30163345306062    0.21253307638392    4.61292499617308
C         3.18551341351414    1.12377236794787    3.60504927354347
O         3.38964250570600    2.35257365185317    4.14092205999290
N         3.50968730330996    2.19018918952713    5.53234555236023
N         3.44983483136403    0.88226290928111    5.78875728655030
C         2.73909570949174    0.73468801003348    2.24558103662133
N         1.28031443501467    0.94499323690939    2.31658622489101
H         3.57357145988243    0.10978653180288   -1.60260094653324
H         4.38479491296406    0.89895110443513   -0.32913412197855
H         2.62297798238716    0.94206262140855   -0.25292054209884
H         4.15392660393656   -1.57434688586481    0.16307805049641
H         2.35876496503211   -1.44188900498896   -0.01172437272548
H         2.30963251085431   -2.84554627626368    2.21565599815264
H         1.13170074670655   -1.53639958673252    2.09049547895463
H         0.30234897225446   -2.76071763356584    4.14812461292458
H         1.45230932143197   -2.69062616895955    5.60130359987260
H         1.63837313833465   -3.78158018743029    4.26261069295308
H         3.62306064244409   -1.76762514189871    5.50572349443939
H         4.79722390405089   -2.66677349277704    3.42534879626815
H         5.52692017809842   -1.09183878533979    4.01537386737298
H         3.16523402022690    1.38894594461269    1.47994490367175
H         0.85544233473496    0.56294400397115    3.16934193814093
H         0.69440547058746    0.59735237947096    1.56203646857480
