32
 energy: -49.320355209626 gnorm: 0.150899499937 xtb: 6.4.1 (79825abcba525fcdf90b791dcacef51065a7a4e7)
C         3.53098267437635   -1.38694571071760   -0.33574672314496
C         2.85114030479750   -0.21248624627677    0.35763730594453
C         2.98557937157282   -0.27482278078516    1.90333842092063
C         2.24446290835291   -1.55722750445516    2.38889905745161
N         2.26043081233647   -1.80964089000430    3.84772879393384
C         1.94516065602596   -3.16808224905978    4.26627769245979
C         3.53523194107197   -1.21591100653005    4.34796585447510
C         4.65435040211249   -1.33949423670049    3.27684117247997
O         4.41171512277441   -0.49297022871669    2.11696922833192
C         3.29851588510217    0.20854863920189    4.73123663740563
C         2.84812403544015    1.20297044241180    3.91396873886729
O         3.05822254276086    2.39918255356077    4.51705756401706
N         3.59022227952757    2.09879728707322    5.78338444670168
N         3.84394179682545    0.78998167438764    5.83465381109619
C         2.43327909326306    1.11676618413743    2.49294735551434
N         0.98029474073907    1.30144603866554    2.31394281090404
H         3.62921419841337   -1.23553185044857   -1.41644335694651
H         2.96145025913788   -2.30167929820246   -0.15495461024049
H         4.51443152463781   -1.53649641598580    0.11950164275800
H         1.77195579016340   -0.13128885354799    0.18632873711315
H         3.30834072671912    0.73245732639690    0.03879491389358
H         2.66119324951218   -2.42246862825687    1.85620191197265
H         1.16872461169199   -1.51279655194486    2.18435829134312
H         1.04013546406827   -3.53626842173233    3.76852976241667
H         1.79521275809809   -3.01069107042508    5.33892029310817
H         2.79290353047389   -3.84348296975111    4.11193553091523
H         3.78653362764655   -1.78198951741415    5.25276157652307
H         4.74821215447743   -2.39325989211750    2.99147284434394
H         5.61896044381047   -0.95876190330565    3.63122755777216
H         2.92738024234095    1.89101608261273    1.89944323674412
H         0.37066119591544    0.65360897548443    2.82611885296042
H         0.82221070624099    1.23754138272530    1.31173801617038
