32
 energy: -49.309088606474 gnorm: 0.157849777985 xtb: 6.4.1 (79825abcba525fcdf90b791dcacef51065a7a4e7)
C         3.97305377095836   -1.33871294021320   -0.30678490510942
C         2.90670464854104   -0.40929535409607    0.26014065778700
C         2.98312433607552   -0.32540137950473    1.80877666269284
C         2.23140501772202   -1.57072101716321    2.36884960881274
N         2.28317020583219   -1.74337706423492    3.83842844531304
C         2.20723058343024   -3.12569769631186    4.28938768326180
C         3.48762960438264   -1.11048966226293    4.45210695658935
C         4.68717125461135   -1.15832960386550    3.46528467481073
O         4.37347009982713   -0.45317728810245    2.23032333731458
C         3.29346463020865    0.33856409587916    4.75961217446631
C         2.78254184907331    1.19785571286393    3.83212621061612
O         2.75078313888798    2.41459138296546    4.42989425753066
N         3.22501253430294    2.23758173207042    5.74161559581439
N         3.53607981229058    0.95669684220862    5.94794421777592
C         2.36637115447596    1.02982580728290    2.41883317724019
N         0.90124341401475    1.04902092917322    2.24463479195987
H         4.05992543851055   -2.27687093106750    0.25249472222212
H         4.99181861614096   -0.95084345893988   -0.23285283266269
H         3.78809576823372   -1.58802713791070   -1.35579448419706
H         1.96988546524269   -0.91399943469141   -0.00105365455903
H         3.04477657683736    0.60577655654944   -0.13251212706682
H         2.52116879820871   -2.51867044200462    1.89609018539665
H         1.15265804889218   -1.59504742956820    2.17718030051056
H         1.57042756672685   -3.72627550899580    3.62895383381155
H         1.66614155341884   -3.30590624019026    5.22350012021114
H         3.22969640576369   -3.50157674934067    4.39863145008274
H         3.70572645256344   -1.75905197768577    5.30887612816434
H         4.95123492404611   -2.16905882853402    3.13458241810747
H         5.55525635479929   -0.59522008839267    3.82633216352081
H         2.73721289130045    1.78820120107441    1.72371508110536
H         0.39331123524192    0.31792006464342    2.75567945855400
H         0.73973849541241    0.93661440779386    1.24725334263986
