32
 energy: -49.312158041447 gnorm: 0.147940234120 xtb: 6.4.1 (79825abcba525fcdf90b791dcacef51065a7a4e7)
C         3.16331738065593   -1.55350288553485   -0.42090193979687
C         2.88363945863030   -0.22362103734242    0.26867518722789
C         3.05734594764115   -0.32021756796388    1.80869037687446
C         2.28380288322147   -1.52894760625374    2.41712068030895
N         2.44556199240502   -1.68923294997721    3.88009514605801
C         1.86047470862210   -2.90979430564295    4.41660630559292
C         3.79878216091020   -1.25213711000306    4.33354042092972
C         4.91344646515072   -1.24225236676805    3.25075105282854
O         4.47852014644046   -0.44741508993694    2.11064119049738
C         3.56466493151331    0.16783449799815    4.73464644231841
C         2.87419402855245    1.03344283613739    3.93863984459318
O         2.65344861041972    2.15826599918320    4.66308807937966
N         3.17698821051881    1.93970445195223    5.94954676090950
N         3.74570926704532    0.73286919420473    5.95981663564911
C         2.54009986296331    1.04069522603614    2.49393995863944
N         1.15579384258612    1.44137060356194    2.17697169075863
H         3.24392834923693   -1.41180830299864   -1.50437105328571
H         2.31528468544947   -2.20107650942826   -0.18578612951838
H         4.03983585150306   -2.13620718485373   -0.12264165922829
H         2.00220750923783    0.25851086265564   -0.16859520269212
H         3.69664469051203    0.42512413315677   -0.08027071710201
H         2.64325980769989   -2.44137909410489    1.92282104696842
H         1.22644108266674   -1.35833702442648    2.18495270759593
H         0.84191548419062   -3.05953925976324    4.03911695083592
H         1.74924749885257   -2.90009418659927    5.50534544558404
H         2.46503684652697   -3.74334034420415    4.04463689664076
H         4.15583463228438   -1.84052715741477    5.18709967619783
H         5.29066786231683   -2.24642760060616    3.02713692020354
H         5.70539272834683   -0.56663602351207    3.59336312330220
H         3.13169395730055    1.79457503758705    1.96713102569954
H         0.45106478207791    0.74080010177082    2.43431997934914
H         0.99860316678015    1.64905029456633    1.19429725357751
