32
 energy: -49.312471766368 gnorm: 0.147147890078 xtb: 6.4.1 (79825abcba525fcdf90b791dcacef51065a7a4e7)
C         4.15190165927836   -0.81587211695249   -0.41973521342337
C         2.80996681138842   -0.56590258607840    0.25779573471298
C         2.92193844062257   -0.42908721146627    1.80048673986139
C         2.23743786480630   -1.68899903639568    2.41176882542224
N         2.22028111945653   -1.72487602450573    3.89182632079713
C         1.78289026117939   -3.02556678341993    4.37848243410358
C         3.48948086594389   -1.20372773688411    4.47953942456502
C         4.58232861115188   -1.37669894181181    3.38831451014860
O         4.29693373125517   -0.46997735475318    2.28505414535459
C         3.29433457849293    0.25476841110374    4.73784778344221
C         2.99428819550489    1.13284679694290    3.73854557516282
O         3.03270116090702    2.36345965424587    4.30678618252252
N         3.57108767714670    2.22191546519419    5.59788804009437
N         3.67617516364462    0.91863754246899    5.86326273434790
C         2.38862886116852    0.96775492595806    2.39513545568604
N         0.91988359728658    1.07710905602372    2.48536764656454
H         4.02235116827407   -0.75439528557187   -1.50597555177945
H         4.46938071553179   -1.85007265796384   -0.26667710511156
H         4.91882949534490   -0.10964852206599   -0.08828679256370
H         2.15380770255110   -1.42598207340645    0.08373437938606
H         2.42167275437007    0.31707723900048   -0.26487567043999
H         2.85530608413331   -2.51639024762417    2.03795699644142
H         1.16596888428163   -1.73995289626494    2.18730981381987
H         1.02737746895933   -3.32635713879027    3.64288047344138
H         1.33590688194666   -2.88835777953454    5.36802679950067
H         2.44619525198821   -3.89223562055024    4.46547227399579
H         3.65256698472090   -1.68201306261302    5.45262667187512
H         4.62676290064894   -2.43342182650131    3.10190657098852
H         5.54662375907359   -1.09754641104913    3.82789168081470
H         2.78458484641854    1.78735017229688    1.78905915010505
H         0.60535420198104    0.25821142219095    3.01842313205009
H         0.47263798688818    1.23339821640044    1.58590454076990
