32
 energy: -49.313460300930 gnorm: 0.147289046397 xtb: 6.4.1 (79825abcba525fcdf90b791dcacef51065a7a4e7)
C         4.08858968826861   -0.25579980030862   -0.39353157128959
C         2.89888604781595   -0.82574820539616    0.36941413577284
C         2.94002363226816   -0.60286059581903    1.90557182510523
C         2.01617142729596   -1.70484098170200    2.50700423922478
N         2.05047534108085   -1.78662988728775    3.98493708908298
C         1.84177058153426   -3.19179326463429    4.30415424253597
C         3.30541722534308   -1.18177326561815    4.52079111413750
C         4.52198587796622   -1.45211583120495    3.59241476077734
O         4.32886009790586   -0.79625006701801    2.30659975199726
C         3.30030986454060    0.30835615671383    4.62805010584671
C         3.03676795049580    1.20878847519109    3.63839275593700
O         3.09716766569385    2.42692378237047    4.23108084815456
N         3.56314023485060    2.29767973223327    5.55130974466207
N         3.68861440941669    0.98354828479244    5.74448122078609
C         2.53269603747829    0.90899990697997    2.27645751195618
N         1.07873231241170    1.15001334984036    2.34867132385483
H         3.78299460076715    0.15641582653414   -1.36160735470945
H         4.76385405970446   -1.08709214063771   -0.60977580640596
H         4.58979948922607    0.48486602319544    0.23654064798122
H         2.75806308617934   -1.88141502858455    0.11189655273268
H         2.00318126960619   -0.33919130320610   -0.03627833409113
H         2.52455810935871   -2.61188338860155    2.15360688685198
H         0.95694092019704   -1.77867146408163    2.23570421820297
H         0.80265889652358   -3.42131393266889    4.03967016118092
H         1.91367951983733   -3.15124809553885    5.39548540202304
H         2.62582138099704   -3.84777509355540    3.91222592988425
H         3.52446346570349   -1.56127441549827    5.52590321775839
H         4.59779699136663   -2.54040546140503    3.48972334596595
H         5.49495963199487   -1.07813315877000    3.93076131093382
H         2.95055674596765    1.60538230884654    1.54413929771369
H         0.71655031640579    0.32571947848020    2.84165615522339
H         0.64872197778881    1.24024732614781    1.43191739868956
