32
 energy: -49.312768919964 gnorm: 0.145481625973 xtb: 6.4.1 (79825abcba525fcdf90b791dcacef51065a7a4e7)
C         3.71564277947913   -1.35603963832501   -0.49857031885605
C         2.93808681537581   -0.34225618975158    0.33207516782018
C         3.14241977303927   -0.41991701207607    1.86940026884665
C         2.39511645694093   -1.69605394891386    2.36194152264111
N         2.40821790015641   -1.74095644955584    3.84179415168137
C         2.07404659172080   -3.06952004352377    4.33493681678065
C         3.59504141570238   -1.09953889684236    4.48046751581856
C         4.82521511223764   -1.12802305510378    3.53132666349312
O         4.55151978519830   -0.56249785858066    2.21753451262251
C         3.26998863349463    0.34083702016169    4.70778703665146
C         2.85447845660917    1.25811400270296    3.78821725464676
O         2.65057385597449    2.43738077398442    4.42581721463706
N         3.01420298507414    2.24141022048605    5.76976966780935
N         3.33388065424992    0.95496520956174    5.92098431196230
C         2.45274634977283    0.93437231550174    2.39802594013048
N         0.98169582835076    1.00385949138172    2.30585926134725
H         3.69072909300633   -2.41752144147011   -0.22816970983265
H         4.77759982535260   -1.10558907431674   -0.55612239176462
H         3.27294338794639   -1.41989650788832   -1.49693281624161
H         1.85842071835795   -0.48095649045599    0.20692644473927
H         3.26191422573001    0.66639823734931    0.04683298426845
H         2.86788419752337   -2.54646819179164    1.85266860607961
H         1.37528185695916   -1.51897228151300    2.00193681191734
H         1.24237271402646   -3.40186282909760    3.70228249292655
H         1.84382062832669   -3.20116733389785    5.39676707313597
H         2.82414709987583   -3.84659223014280    4.15559451806637
H         3.93513667200767   -1.57430237534093    5.40846943847346
H         5.11162770568330   -2.16500022063314    3.32320806636340
H         5.57093542864339   -0.42149095379713    3.91307651973093
H         2.71921324646593    1.80510184106412    1.79249189975243
H         0.47810045704038    0.36063634354859    2.92741046749267
H         0.62904502178585    0.82123506960567    1.37003099610142
