32
 energy: -49.313576303666 gnorm: 0.147862914776 xtb: 6.4.1 (79825abcba525fcdf90b791dcacef51065a7a4e7)
C         3.70393339357521   -1.49194956154636   -0.36611170633004
C         3.12789265827246   -0.23253920477983    0.26980080197763
C         3.12702993784896   -0.33589971762763    1.81914501867491
C         2.44532930970049   -1.63129763341397    2.35469438995036
N         2.36415032997344   -1.62325166000264    3.83303702456300
C         2.04124287753659   -2.95516787245180    4.32463785195987
C         3.64627003229273   -1.09530301778089    4.38558524338572
C         4.79394222755577   -1.21877102845390    3.34509919021000
O         4.50372423211118   -0.25396095467219    2.29357993228068
C         3.32735783660244    0.32605900620207    4.71730998118495
C         2.84901957070728    1.20590858938953    3.79172281727276
O         2.61129954485414    2.38619042691607    4.41558571248919
N         2.93668724775382    2.16453921011364    5.76533842532867
N         3.36842813487844    0.91486348407234    5.94397447712388
C         2.40774306497530    0.98389151135431    2.39357662973721
N         0.93814334338602    0.90213072943740    2.28915124807089
H         3.45611167941492   -2.43239576799561    0.13849322220728
H         4.79571680157096   -1.52488080862801   -0.39285153201560
H         3.37516995520306   -1.46571916256077   -1.40919113662789
H         2.08055123161180   -0.16908880066343   -0.04583956462454
H         3.73127969469161    0.64265890823660   -0.00142492794721
H         2.89153313168848   -2.57960926244042    2.02654833218628
H         1.38950955359325   -1.70291434042296    2.06984423554373
H         0.97511299440410   -3.20733923939296    4.27814769904361
H         2.26182436947020   -3.20173316355512    5.36788655922892
H         2.53517150581392   -3.77733753325978    3.79669166214576
H         3.87278335874961   -1.67013233293957    5.29140845825309
H         4.78715044039665   -2.23085316815316    2.92520541208304
H         5.74518763607140   -0.89085310120972    3.77940479816028
H         2.55587312023394    1.91699906057569    1.84292811229653
H         0.51563281813175    0.53846009706263    3.15106699321647
H         0.67461732352009    0.23337356092468    1.57025855399750
