32
 energy: -49.316560769464 gnorm: 0.147258301271 xtb: 6.4.1 (79825abcba525fcdf90b791dcacef51065a7a4e7)
C         3.81833679502419    0.11902563118510   -0.43725196753955
C         2.94509107653378   -0.85971801003129    0.33852177147505
C         3.03988338106797   -0.64930647037348    1.87406501425384
C         2.12590140042740   -1.73949208748953    2.51102411074709
N         2.05855824795233   -1.78818143627369    3.98928184933707
C         1.62571353344152   -3.12572802419019    4.36816964090818
C         3.30201554954404   -1.23371482834585    4.60104236368572
C         4.49182620336747   -1.53611083658125    3.64819698679320
O         4.39856814218835   -0.88180236149835    2.35052173400067
C         3.36038928671576    0.25624865929395    4.69387334063315
C         3.06335981813238    1.10042882093323    3.66489922399042
O         3.20802399253456    2.38889765504176    4.06201543967482
N         3.60666898208398    2.29473877901451    5.40702662373796
N         3.62862291440467    1.01702600337677    5.79039138351286
C         2.64736535525219    0.86227843443878    2.26166641503028
N         1.19643194597904    1.12150100998193    2.33172883837611
H         3.91219563027636   -0.36382240056906   -1.41629696302244
H         4.80002049233065    0.14164063992498    0.04188911470042
H         3.49260218372078    1.16244788092910   -0.48146847492209
H         3.28016127554032   -1.88400049888359    0.14065261130312
H         1.92148825932352   -0.73826558149032   -0.03710787449586
H         2.43645120019305   -2.73833535443903    2.17644440068172
H         1.10005179581317   -1.66658422906304    2.13242016232484
H         0.86850170826026   -3.46543227512522    3.65149961028246
H         1.28407670949135   -3.09544479570178    5.40748947041975
H         2.38700946178615   -3.90862177063703    4.28967436410093
H         3.59026899314717   -1.76869015269412    5.51371101618106
H         4.61902042969060   -2.61959646773385    3.54549505349245
H         5.40156994485923   -1.07760610224057    4.05212655103878
H         3.04210558089934    1.61312933856053    1.57155840141089
H         0.86746244649550    0.60129726142767    3.15321368799195
H         0.73495743735053    0.86670178295193    1.46247199895614
