32
 energy: -49.312638503874 gnorm: 0.147144837170 xtb: 6.4.1 (79825abcba525fcdf90b791dcacef51065a7a4e7)
C         3.37803113876341   -1.56474092569637   -0.31071415693575
C         2.81359310590085   -0.30433021892574    0.33356578600740
C         2.95954207350061   -0.32290220398976    1.87936836334253
C         2.04144418309118   -1.42466279031562    2.48994553810481
N         2.31435786980684   -1.80188833521511    3.89542435085739
C         2.14798787047375   -3.24204111103860    4.03041465086978
C         3.58579364182956   -1.20890847070837    4.40502826889401
C         4.72336209578848   -1.29602785796625    3.34987176637539
O         4.37471272029079   -0.55191461566999    2.14757530181157
C         3.38157069740717    0.22601770022833    4.76737633844993
C         3.07372634266745    1.19731733503133    3.86103025584621
O         2.98426909844783    2.38892871468895    4.50199877887646
N         3.29081526285027    2.12893128031385    5.84931818622761
N         3.59453634943168    0.83505005966772    5.96604579462323
C         2.61573407443363    1.14110085978862    2.45180633511852
N         1.18567763315040    1.47057500885897    2.29786424182398
H         3.25704304725631   -1.58868110558688   -1.39941501219014
H         3.02977231646328   -2.56842796168762   -0.05553065706808
H         4.44201273868862   -1.61695661377181   -0.06170651580009
H         1.78651358067523   -0.02445337152853    0.07403649813925
H         3.44032714156271    0.45150235754475   -0.15585490348119
H         2.02522163542898   -2.37543691971740    1.94054767757806
H         1.10186773092782   -0.86107109993360    2.51412028655589
H         1.20740870441993   -3.53997212517145    3.55194563359174
H         2.17449012702698   -3.43083059146285    5.10813199097788
H         2.90231723426914   -3.89755902334851    3.58326915775850
H         3.81426531777844   -1.72976370740186    5.34245198725313
H         4.82284664210726   -2.35159427757469    3.07319591876680
H         5.66979005673717   -0.95092394591442    3.78137698308002
H         3.09264699738639    1.92403493135375    1.85564000357062
H         0.55801367027427    0.87899895021080    2.85441247650339
H         0.86760314281476    1.44305201359192    1.33269072571235
