32
 energy: -49.309109228660 gnorm: 0.153880705998 xtb: 6.4.1 (79825abcba525fcdf90b791dcacef51065a7a4e7)
C         3.40861573114691   -1.33978761744355   -0.57597567368202
C         2.85855208780205   -0.21429805153067    0.29179463800880
C         3.04767189206521   -0.39951947352832    1.82185292392706
C         2.41784127716418   -1.73110973907729    2.33152475662193
N         2.33606161290481   -1.74307447084244    3.80980775571926
C         1.71491921676823   -2.89713184406489    4.44405934690219
C         3.60813907090938   -1.24449065975467    4.41072650263182
C         4.68812603663546   -1.30817518447998    3.29511927420295
O         4.46529535475831   -0.41837945398940    2.16401903244272
C         3.50958431660979    0.21758686930713    4.70164324893718
C         2.89960089860632    1.14284707204724    3.90699353214127
O         2.75906018606780    2.26912878737301    4.64896303158812
N         3.41948751864115    2.04676220085337    5.87012135192243
N         3.89728328948264    0.80108569376486    5.86882014217685
C         2.56489188797388    0.99173085327374    2.47034358905867
N         1.12032495390333    1.27959428294328    2.38274312075362
H         3.34593794186338   -1.06596377980584   -1.63501901747378
H         2.81768379267157   -2.24703611811831   -0.42938066371927
H         4.42489970690575   -1.61291685226747   -0.27705188818120
H         1.79093565187537   -0.18415477828324    0.04712059967655
H         3.35291273907491    0.68961274923316   -0.08525158862842
H         2.81969263901554   -2.64527333694212    1.87447659743420
H         1.37441276878658   -1.62897014938341    2.01238783357320
H         0.89773034157854   -3.27354407812475    3.81724132661820
H         1.20129793495514   -2.62071298122875    5.37012861613926
H         2.43200364519114   -3.68590227432290    4.69363247655419
H         4.09731775817157   -1.75363789048825    5.24961030366964
H         4.85736975731592   -2.33801910884714    2.96128514430236
H         5.66192336587876   -0.91711977724407    3.61105247801565
H         3.07157313021632    1.81318033710482    1.95620268819192
H         0.43599129393726    0.67354061803281    2.84970844774954
H         0.79963301893285    1.32282831659006    1.41901270340485
