32
 energy: -49.316391883318 gnorm: 0.143612249786 xtb: 6.4.1 (79825abcba525fcdf90b791dcacef51065a7a4e7)
C         3.69704644013824   -1.51265795233933   -0.35947204951605
C         3.05983236213115   -0.27609611107976    0.26277799731512
C         3.10919381062437   -0.32975055489026    1.81385384385860
C         2.37762902368095   -1.58932644250204    2.36871074237477
N         2.23291960325504   -1.66830206459245    3.84009571464492
C         2.12914288900601   -3.07026195026299    4.21914750470940
C         3.47940456737362   -1.06887200382628    4.40119199977294
C         4.68343051973558   -1.23723634050188    3.43321370435162
O         4.49896277680134   -0.41030348979267    2.24875964675897
C         3.30721488715212    0.37432249655627    4.74696158515266
C         2.89493828858530    1.23521413516826    3.77302731685186
O         2.78378033785288    2.45103699535920    4.36311173060859
N         3.11495960613916    2.31893769665812    5.72315175512260
N         3.39989940953000    1.03284443662619    5.93475015056706
C         2.35804017401164    0.95826088064623    2.41882401114936
N         0.88890192318274    0.86007649609569    2.51528874360714
H         3.02744426872347   -2.37542738226683   -0.27147974232566
H         4.61529388917297   -1.71677516859658    0.19635911244905
H         4.04272387871546   -1.41338811156473   -1.39264228415444
H         2.02883170729120   -0.13411866853594   -0.07994479247747
H         3.54011349933532    0.67914766724759    0.01691136139253
H         3.03345236669595   -2.38573023949975    1.99226769005346
H         1.35501967725781   -1.61160571958983    1.97526738104238
H         2.65157434648153   -3.74689957082978    3.53240769822490
H         1.10095210946930   -3.42806015014471    4.10679684148355
H         2.46095800085498   -3.27478501125099    5.24224313455199
H         3.81409198811528   -1.64008371908281    5.27523674925133
H         4.87611994023203   -2.26603600920075    3.10900822661206
H         5.66987596419948   -0.87422566846593    3.74332333908953
H         2.56541673986434    1.84405236234772    1.81201728340814
H         0.57783084449196    0.15111478354995    3.18929044737233
H         0.63284208566904    0.60284972115221    1.56568010436654
