32
 energy: -49.308399535732 gnorm: 0.158809453438 xtb: 6.4.1 (79825abcba525fcdf90b791dcacef51065a7a4e7)
C         3.48996998321960   -1.53625756348951   -0.42562375153958
C         3.05883450160594   -0.25748454345786    0.28231964607708
C         3.11712656725516   -0.42183244644338    1.82528544135224
C         2.27152857756312   -1.61323951123016    2.36851456052666
N         2.30385200582690   -1.69917104375586    3.84625698573339
C         2.20324709673627   -3.05958998901895    4.35525633801201
C         3.57648599514529   -1.13356954235107    4.38325595895896
C         4.79848365828726   -1.21941969156915    3.42703501003013
O         4.52299349058489   -0.46748175251737    2.21069944350242
C         3.29895847730892    0.30252749572369    4.68759140370482
C         2.81122331383122    1.24971889709258    3.83635862303899
O         2.61501914707514    2.40408618483355    4.52025994576298
N         3.06415963415506    2.16028288274372    5.83009641519501
N         3.47591333943788    0.89323733542742    5.90119435875755
C         2.51117177098601    0.94670196096593    2.41615472855581
N         1.06280262252028    1.16867848275375    2.24218330085369
H         2.68390312820266   -2.23440681314465   -0.17397984377427
H         4.48529401507295   -1.91602765193017   -0.18294032224107
H         3.31526991732735   -1.24174572976419   -1.46462846653667
H         2.12041080426039    0.17666226428033   -0.08024947735568
H         3.78981977078269    0.54866478944903    0.14305427104799
H         2.82886707967995   -2.47314372966878    1.97353207186851
H         1.19422459515522   -1.68934210680688    2.18237364643696
H         2.06009626677295   -3.05236989298803    5.44238115673576
H         3.00370865237579   -3.66080779833686    3.91297028940904
H         1.32362600546571   -3.54801749807775    3.92356092862045
H         3.83935298675934   -1.73284592599407    5.26304086852168
H         5.03767651582622   -2.25935618148242    3.17806504701617
H         5.67420394831006   -0.73546045252054    3.87415555640371
H         2.96935342676752    1.72055513409644    1.79400776847716
H         0.39939302134457    0.74233893848196    2.89929251084108
H         0.77704289113143    0.93244811132975    1.29559711628965
