32
 energy: -49.311382464728 gnorm: 0.151220678405 xtb: 6.4.1 (79825abcba525fcdf90b791dcacef51065a7a4e7)
C         3.79212188178019   -1.42138684989373   -0.47893056799603
C         3.14765701698963   -0.25537116717770    0.26093059840236
C         3.05650175187204   -0.36211118690949    1.80736162078164
C         2.38436896361243   -1.65215187506757    2.36737694497468
N         2.27792884733326   -1.72462771089947    3.84235811625970
C         1.96545439923453   -3.05967275742897    4.33221098579063
C         3.53865195395172   -1.19086683526998    4.43695613853890
C         4.72094788687065   -1.07893926916312    3.43463104011831
O         4.37985335311720   -0.13705993345949    2.37760902159341
C         3.21355980640631    0.22737687599044    4.77594901912305
C         2.80207500229165    1.11475509413900    3.82574138679749
O         2.89594127598438    2.37873696616711    4.30773712305388
N         3.37344084016251    2.27679672569545    5.62623670899881
N         3.55300204301744    0.97581105387129    5.86117181807058
C         2.26665376367569    0.87672596304246    2.46357563697950
N         0.79177685837028    0.83454646253048    2.44708867005039
H         3.24011574266690   -2.36663275953845   -0.43117920321387
H         4.77647716098067   -1.72088192214009   -0.11131952706872
H         3.78911528294222   -1.05676850963102   -1.51035315596512
H         2.17605105532731   -0.20175847510527   -0.24274229623743
H         3.69951697421308    0.66075420825056    0.01643943579860
H         2.88963757050390   -2.52549458405432    1.93373103169658
H         1.32392915783397   -1.65332986506335    2.09080877725294
H         2.88575543215841   -3.50278107036786    4.73106646468980
H         1.42683928908545   -3.67119583191383    3.60162779740849
H         1.34750746718768   -2.94226401985731    5.22832057663850
H         3.99838350450620   -1.67623676781850    5.30604511899697
H         4.89684190844883   -2.09231389156928    3.05674171645498
H         5.61183934717271   -0.64714596393085    3.90461647191998
H         2.53000952617059    1.73953558611620    1.84547427009961
H         0.43920667055036    0.14965798898235    3.12553709434544
H         0.35456711756016    0.60352933308505    1.55885022163766
