32
 energy: -49.315874700466 gnorm: 0.148130439799 xtb: 6.4.1 (79825abcba525fcdf90b791dcacef51065a7a4e7)
C         3.40688117331027   -1.43207378169028   -0.62836731157665
C         3.20372639513420   -0.24081092271643    0.30004154714483
C         3.08441576305206   -0.38242683552770    1.84174888650238
C         2.45617982683426   -1.70844833064449    2.36764926257989
N         2.38952525255087   -1.74877644795703    3.84618992589820
C         2.05677646443257   -3.06561155094148    4.37075158166921
C         3.57809952479107   -1.13669803333514    4.50990780013172
C         4.74686272901047   -1.08327914200608    3.48709499474576
O         4.45227476238417   -0.24953403374275    2.33000177020673
C         3.28873250471181    0.30791468952602    4.75765176849370
C         2.82209537913286    1.15874284185765    3.79953089996736
O         2.71796068633464    2.35774020170018    4.42430463444299
N         3.25558652633386    2.23249700548540    5.71740609879118
N         3.65681379835611    0.97154895509781    5.88777962456300
C         2.33995715764929    0.92286542124992    2.41723793639400
N         0.86700753874706    0.87823525135689    2.34147272031817
H         2.59231160536628   -2.16320688741169   -0.67737341685102
H         4.26611632723450   -1.99357516416702   -0.25390551052761
H         3.51637697982757   -1.01506595613039   -1.63380416560320
H         2.28412612994905    0.22691477928619   -0.06893931084849
H         3.96740666293593    0.53545912631484    0.16659379113779
H         3.03487924054304   -2.51393330717043    1.89608424592314
H         1.40511119883586   -1.75378543452053    2.06069128502537
H         1.43254213073137   -2.93567488839113    5.26284609346356
H         2.91487180687974   -3.73242126219251    4.50058104813353
H         1.35872684742032   -3.54192916393792    3.67468845110680
H         3.90577365813790   -1.65771130543153    5.41733688546753
H         4.75338648800123   -2.10774436970517    3.09838480405416
H         5.64186142471965   -0.62960479583673    3.92774936711751
H         2.78019933711829    1.77853064561261    1.89774795581204
H         0.54182524882397    0.23763079322041    3.07465252659270
H         0.52000331756263    0.57244934634112    1.43617063689107
