32
 energy: -49.311673810967 gnorm: 0.150518204647 xtb: 6.4.1 (79825abcba525fcdf90b791dcacef51065a7a4e7)
C         3.93358590450414   -1.26445994869723   -0.37152961163785
C         2.81499230236452   -0.43627843065669    0.24910378844291
C         2.95979830259178   -0.39048941813130    1.79444718786774
C         2.25386563481286   -1.62946215222220    2.42388365232355
N         2.23470283421414   -1.68040778103163    3.90347448433094
C         1.81454914019867   -3.01665014390847    4.30080131438032
C         3.54363272938567   -1.19883570401100    4.43513329222099
C         4.66950714939315   -1.28611664331307    3.36752106161073
O         4.33305850044930   -0.37163517326005    2.28525323115816
C         3.35815111393104    0.25958803241138    4.70086449370713
C         2.95272791955693    1.16322790229598    3.76346308551667
O         2.96396078902026    2.34990594633387    4.41954995652661
N         3.39727148861320    2.15214097386871    5.74241414303731
N         3.73843808603478    0.86751905791095    5.85796645829949
C         2.41847945273476    1.00309450357665    2.38950341869833
N         0.94954709129865    1.12667234930237    2.45491791880129
H         3.97687854533648   -1.06057857697954   -1.44718705588266
H         3.86636276579869   -2.32120900483106   -0.10217301366324
H         4.86631047285547   -0.92133053875437    0.08571782338811
H         1.79733893041270   -0.81980546644850    0.11543447252245
H         2.85279117858351    0.55907355299154   -0.21074044562200
H         2.67091537801209   -2.50261162126862    1.90450696163118
H         1.18924068655310   -1.66162671009167    2.16588543355486
H         1.89660628513110   -3.73323527006023    3.47487332615087
H         0.76054290473228   -2.89088064146223    4.56739349839447
H         2.35182989762099   -3.40598406174691    5.17166531498098
H         3.89705652356825   -1.63626543497244    5.37640879712662
H         5.03019407887882   -2.20415238483522    2.89025543195419
H         5.63121539258096   -0.93404732166644    3.75762848734547
H         2.77985175789792    1.80135572377273    1.73525952045173
H         0.56943997958709    0.27882754076494    2.89120680189692
H         0.53700323894642    1.22486887392091    1.53098403083484
