32
 energy: -49.314703253126 gnorm: 0.145400875835 xtb: 6.4.1 (79825abcba525fcdf90b791dcacef51065a7a4e7)
C         3.23713242315437   -1.52638263222150   -0.44841703108328
C         3.20139015016556   -0.18964582897197    0.28245868010873
C         3.21154784123874   -0.40672130020383    1.81996533383320
C         2.48821491044230   -1.70954056020962    2.27716997024831
N         2.33434368185887   -1.55788775770072    3.74191458308258
C         1.76048178092883   -2.80963441935756    4.21494122156271
C         3.60494165717904   -1.12017576704149    4.39142148572617
C         4.84965022619471   -1.14603953137591    3.46134692830802
O         4.60916463538238   -0.39564899372284    2.23665985530027
C         3.39874724071350    0.31873198644787    4.73644992050072
C         2.94634759522945    1.19388438062911    3.79353039920606
O         2.71290539956784    2.35506776666186    4.45378702988362
N         3.05245030132105    2.16768559832651    5.80524401548565
N         3.49506322105635    0.91800928958152    5.95492158662757
C         2.52232204617013    0.92755136851624    2.39778746058173
N         1.05140658033014    0.84614873144677    2.48201410753638
H         2.22905689239531   -1.94632131037809   -0.35944492145945
H         3.99277866886234   -2.20398052295228   -0.04387983152444
H         3.50001503621932   -1.38137915974493   -1.50039367263944
H         2.28363563866102    0.37135198748797    0.07368376076128
H         4.15659785696478    0.33416772088082    0.15281047314724
H         3.20964364972759   -2.50483858825960    2.04670466597055
H         1.49020695782974   -1.88893665895430    1.86145241876820
H         1.53521927661356   -2.90390033175356    5.28393860205772
H         2.41157362545217   -3.67029307174481    4.03282972775882
H         0.88635776368882   -3.06747982101540    3.60824642940853
H         3.76704569162931   -1.75049987061595    5.27384231720637
H         5.10307509671249   -2.19215474482845    3.25619828842595
H         5.70091910855995   -0.63868362851841    3.92926853660990
H         2.94008489781455    1.69503177408884    1.74029675867998
H         0.66412981670896    0.31784481415070    3.27231904869657
H         0.55131717144601    0.61380943222381    1.62795448041577
