32
 energy: -49.318689165568 gnorm: 0.145233281205 xtb: 6.4.1 (79825abcba525fcdf90b791dcacef51065a7a4e7)
C         3.66634691589701   -1.47284349742211   -0.49856027334176
C         3.13950582381358   -0.31784983554053    0.34449973895908
C         3.12025949951995   -0.39115749664300    1.89543726040504
C         2.34814363389505   -1.63113001701174    2.43939484109091
N         2.38763926845019   -1.79504862437357    3.91035455229000
C         2.17902702430399   -3.16902256066728    4.34465621209119
C         3.59166973692504   -1.12692478298316    4.48636789740015
C         4.77293634227000   -1.16126019383421    3.47719134517244
O         4.49930673954968   -0.27386224889257    2.35539393566113
C         3.17945986974190    0.29222431586126    4.70571950476435
C         2.78052109439751    1.19264476944716    3.76245643232653
O         2.60260442527347    2.40187444213333    4.34972995256421
N         2.99579626877763    2.23731797531098    5.68956581770895
N         3.41252239528847    0.98095223073150    5.85655354001998
C         2.41981078169951    0.98797428912870    2.33878956321482
N         0.94921568073842    1.08123061755749    2.26154888448778
H         2.94382199744447   -2.29418871980291   -0.43666867533060
H         4.67227634812616   -1.84518817972720   -0.29057973238611
H         3.68166775403749   -1.20425017640514   -1.55894276386128
H         2.07114937516823   -0.30624868922050    0.10147963739005
H         3.63228189376458    0.63937084065914    0.13352255852954
H         2.93215685020871   -2.46681231849617    2.03118376006595
H         1.32651526472815   -1.62107030448013    2.04291257262592
H         1.49915504789700   -3.73077068315390    3.69304451875128
H         1.73381755711545   -3.22352049883182    5.34297329880887
H         3.15584953716734   -3.65412011063208    4.44033151097376
H         3.75977119044951   -1.58411263976776    5.46869873822496
H         5.05535758613649   -2.15102751582414    3.10133758184249
H         5.68575689524837   -0.80108722251840    3.96509852872739
H         2.90457714473941    1.75439943463302    1.72769213836539
H         0.42764124587767    0.50155363146339    2.92908533995536
H         0.54844242388246    1.02850885075184    1.32876272172351
