32
 energy: -49.309372868718 gnorm: 0.158579791976 xtb: 6.4.1 (79825abcba525fcdf90b791dcacef51065a7a4e7)
C         3.79016122992988   -1.65813350507487   -0.15875877861555
C         2.96304545655502   -0.44852156009335    0.25961967065559
C         2.91542900742487   -0.36093421667808    1.80920437209782
C         2.05407927960279   -1.53107207287272    2.37350805832029
N         2.25024968313366   -1.76265270345801    3.82265928194568
C         2.18794616964506   -3.18614217810925    4.12222124638459
C         3.49822025324913   -1.17978478206083    4.39772853434372
C         4.66005582361213   -1.19464993514657    3.36577690503523
O         4.30162499442507   -0.31685699151832    2.26043325177458
C         3.27912541926478    0.24308080746061    4.79706201092228
C         2.94158559884362    1.17846834879232    3.86391069969156
O         2.92701262249151    2.41172000072067    4.42752308057153
N         3.22408372502788    2.20708764358958    5.78646132789384
N         3.53071498878965    0.91916512923290    5.95148651047657
C         2.52287073019176    1.06367814957524    2.44604951734311
N         1.09526556148470    1.39456530840631    2.27350972621945
H         3.19989495657604   -2.56067692223222    0.03484367543149
H         4.75698337307008   -1.63915146657602    0.34985219302107
H         3.97604864097575   -1.71258818476578   -1.23545218211440
H         1.94806945136878   -0.45214501382928   -0.15316287491103
H         3.47757299431270    0.42633995442684   -0.15690138234329
H         2.11964529485253   -2.43028140312493    1.74645439241186
H         1.05203608012251   -1.09654528840738    2.28339801849547
H         2.33570181798246   -3.33047670873588    5.19912443204040
H         2.91522464682423   -3.79376073434695    3.57478704295492
H         1.22049654508388   -3.47055197911437    3.69583185794533
H         3.68365240879411   -1.76571237619356    5.30577946144489
H         4.83971892389115   -2.21633543392746    3.01286462525583
H         5.52927828978131   -0.82671731759511    3.92264066526356
H         3.00007592565557    1.82917780663234    1.82788168720078
H         0.60979621127060    0.87852724998070    3.01627109917513
H         0.77208826989059    1.27724439100136    1.31680650473718
