32
 energy: -49.317929072809 gnorm: 0.148157772179 xtb: 6.4.1 (79825abcba525fcdf90b791dcacef51065a7a4e7)
C         3.35362052848475   -1.40504286450287   -0.54978723761577
C         2.98826541508350   -0.21382326200899    0.32761437051599
C         3.04940366550194   -0.36050149576103    1.87225000414985
C         2.30630168656474   -1.62976155940433    2.38835364253757
N         2.38539337959538   -1.58448481244155    3.86613787193278
C         1.80350799132976   -2.84942520892115    4.29190374563865
C         3.74144308900331   -1.22535897293680    4.37606732081002
C         4.84289684393387   -1.34840403553433    3.28672505382212
O         4.47031480488221   -0.48024291503657    2.17845766979686
C         3.50073320036720    0.20196951381810    4.74594355331492
C         2.88285579617672    1.06934067031006    3.89415181481229
O         2.83398573865239    2.26739727536356    4.52743929186594
N         3.38409626117905    2.10665049330880    5.81133091043469
N         3.78102989821667    0.83727260978518    5.91680093067359
C         2.41477235849893    0.98303947850669    2.48977320221085
N         0.95770005634728    1.19905799625896    2.40265768442373
H         3.40320231781415   -1.11750190315166   -1.60588507578503
H         2.52791446592450   -2.10832825134831   -0.41791738483682
H         4.30669062957534   -1.82562113285210   -0.21578210423668
H         1.95401619269378    0.11171171666260    0.16970812872852
H         3.53259700429753    0.67421274878659   -0.01692330524807
H         2.70416227339232   -2.55590434235016    1.95241886701595
H         1.23127001398469   -1.63534011222396    2.17551638107972
H         0.79694822622601   -2.91583528223385    3.86200631269956
H         1.74839159614951   -2.96048251387477    5.37930751625183
H         2.25702596490304   -3.75249679913614    3.87066892968192
H         4.01408890072879   -1.79722026065470    5.27099282060206
H         5.12726357333380   -2.35733074062482    2.96755483260257
H         5.75542340740792   -0.87645490376531    3.66827274689139
H         2.85565727759949    1.79658025055958    1.90700575244893
H         0.62297730567340    0.54763352443301    3.12187744717518
H         0.65362479427848    0.92976562073350    1.47071955927290
