32
 energy: -49.316968349542 gnorm: 0.140097787272 xtb: 6.4.1 (79825abcba525fcdf90b791dcacef51065a7a4e7)
C         3.55304541872513   -1.78561594267415   -0.20403491301725
C         2.87500926754012   -0.54086297696549    0.35558917524560
C         2.94330055831304   -0.38083839411699    1.89859924139581
C         1.93047512364126   -1.33175272346724    2.60537445198201
N         2.42331015959490   -1.88805334837185    3.88591923182605
C         2.60483361093404   -3.33261730818140    3.87089971191406
C         3.59105169051074   -1.18056508177884    4.48900321213111
C         4.79272231254385   -1.14950209598435    3.50410227970603
O         4.34570784777032   -0.49491377854362    2.28243542550514
C         3.18993758171065    0.24094088329682    4.71360185561770
C         2.82327968409711    1.19371189307066    3.80947588337834
O         2.66624451796049    2.38053930286429    4.44631306818267
N         2.88460382317953    2.11666379578283    5.80995808683724
N         3.25265896205575    0.84030397882723    5.93422185530549
C         2.62443014567692    1.13294778393127    2.34128110837559
N         1.32408960048512    1.79389346700799    2.11861970757352
H         3.35492079451700   -2.61067572079670    0.48914890077010
H         4.63922924290010   -1.67111357883551   -0.23377383308715
H         3.22473927544302   -2.01749893568793   -1.22149915368761
H         1.83131892875920   -0.51229537702541    0.02321405050302
H         3.39671001391427    0.29559542216375   -0.12584277850037
H         1.60226751116266   -2.13074757959532    1.92717123011937
H         1.02807289099166   -0.74161576361112    2.80141653154853
H         3.19752020525548   -3.63260472615479    4.74331865321525
H         3.16826780500092   -3.73000447080863    3.02093274077817
H         1.65628853492774   -3.86117210881621    4.01071272934283
H         3.69252873619922   -1.67283215135712    5.46349193230607
H         5.15075144507749   -2.17141905939783    3.33626894959561
H         5.59144725406397   -0.57575110624474    3.98770089697234
H         3.40100699964622    1.70163848330117    1.82227697990658
H         0.50028709180574    1.25253378644766    2.40488767120973
H         1.27576775084621    1.84539458486940    1.10446909967319
