32
 energy: -49.310916021996 gnorm: 0.144313501472 xtb: 6.4.1 (79825abcba525fcdf90b791dcacef51065a7a4e7)
C         3.77645508470474   -1.31205719752567   -0.56794241465077
C         3.05560736264882   -0.29974502505700    0.31405798750838
C         3.08942698267223   -0.43018602081657    1.86098817827032
C         2.38653092936337   -1.72232050285962    2.37665302220296
N         2.32390753597392   -1.64918798059663    3.85411085325826
C         1.66303264132748   -2.75722510131631    4.52897342590097
C         3.65618095969105   -1.22514637573371    4.37670673886223
C         4.86640424759622   -1.22487967252391    3.40183928202554
O         4.51035710402772   -0.52378132141965    2.17608676429754
C         3.41207218066293    0.22428309785005    4.64425371637981
C         2.94475491845830    1.16432848498438    3.77386092620282
O         2.71743607385639    2.31845524505812    4.44847080419342
N         3.09975008852536    2.06364104170444    5.77728400297533
N         3.46599339755275    0.78512888807730    5.88345820488738
C         2.46795338603214    0.95849960209298    2.38493182798981
N         0.99693328400980    1.07328582504905    2.36954366206270
H         3.53552657904295   -2.33909697017534   -0.27192964116353
H         4.86553567002503   -1.25115235040811   -0.63106586426313
H         3.39420971775989   -1.17343066769119   -1.58355025855706
H         1.96563513619700   -0.29793294963469    0.20209315779368
H         3.42101076900448    0.70993458339754    0.08902801533530
H         2.96743081822719   -2.57296868457194    1.99583073095386
H         1.33585829292438   -1.82500354523169    2.08243012128264
H         1.84361195890115   -2.69383729270195    5.60867604909966
H         2.06040159397531   -3.69482444179884    4.12794488208195
H         0.57027539700962   -2.73812631711519    4.46437886052985
H         3.96177427083826   -1.73200714554630    5.29972223597445
H         5.24112070586607   -2.20962397018724    3.10095158146466
H         5.71152515527013   -0.69771894777825    3.85888585971280
H         2.65919365983490    1.69302270121678    1.59769047024120
H         0.47361912176019    0.46840131895501    3.01291543695352
H         0.66228756958438    1.02088449720299    1.41102649343462
