32
 energy: -49.310353505190 gnorm: 0.151494309845 xtb: 6.4.1 (79825abcba525fcdf90b791dcacef51065a7a4e7)
C         3.39241962175832   -1.48657829947641   -0.38836348565349
C         2.83690645859760   -0.27096027960818    0.34375675140098
C         2.91303244527735   -0.34089094817403    1.89310053708218
C         2.08124015491411   -1.54096322071832    2.43856614243855
N         2.25741519127960   -1.84313079414111    3.87724915070987
C         2.21232322131841   -3.25767623430235    4.21925688436510
C         3.51859420159304   -1.21187156922779    4.36593053575855
C         4.67536433896075   -1.29396393125490    3.33144964513575
O         4.33328701596054   -0.42528213178475    2.21379462719079
C         3.27704744668376    0.22859364904105    4.68014602081103
C         2.97990049288232    1.27638280411645    3.85947804679407
O         3.17116151417927    2.44046963078260    4.52813490510368
N         3.46426217029802    2.05993065726417    5.84954358350141
N         3.53964421534565    0.72967153378804    5.91830883067530
C         2.55742337480784    1.12784269642803    2.44587336994989
N         1.15004191756415    1.55064724929298    2.31235725939513
H         3.19285650571149   -1.39369973112407   -1.46168959486144
H         2.84570111638964   -2.37529823735477   -0.06422425177312
H         4.41724842785989   -1.72621298670977   -0.08988524152583
H         1.79072527810884   -0.17614063336278    0.03215920945856
H         3.30389696701291    0.68058347635549    0.06074545537574
H         2.45180089547917   -2.33427637362658    1.77568484928429
H         1.00347137986865   -1.47439158690640    2.25146565264227
H         1.49031583883919   -3.79063264072667    3.58913985868476
H         1.74749877087773   -3.22701061759685    5.20961861338994
H         3.17013956983319   -3.78659282755856    4.25786640935176
H         3.70776954419979   -1.84643158559152    5.23988647876458
H         4.84634108068641   -2.35387072319391    3.11228826389698
H         5.64862512020928   -0.84947353342746    3.56853841364672
H         3.12665541693406    1.80191246989925    1.79976903382059
H         0.61835169017085    0.79706320352644    2.76300880453509
H         0.98827902856392    1.49101754949561    1.31047608530556
