32
 energy: -49.314207618223 gnorm: 0.153303177816 xtb: 6.4.1 (79825abcba525fcdf90b791dcacef51065a7a4e7)
C         3.68527254870492   -1.60043366745977   -0.24505848054737
C         3.03526368636818   -0.34100980802411    0.31499697545955
C         2.95782907049748   -0.33651731949269    1.86584685198724
C         2.11334351697042   -1.52772066883907    2.41124886242101
N         2.26099710451841   -1.82642366110958    3.85385991031971
C         2.29712853077063   -3.24044863308600    4.19906895468974
C         3.44732650444934   -1.10611311683198    4.40308253596958
C         4.64842262347933   -1.21572534344959    3.42310278301460
O         4.34782620939598   -0.32940113204270    2.30737481468767
C         3.15139825781966    0.33437986979400    4.66656444533773
C         2.93523926864666    1.34855206208281    3.78090963491628
O         3.04979673981695    2.50882352917525    4.47331677071419
N         3.32184015181322    2.16108658839462    5.80819886533514
N         3.39455675341673    0.83278068981560    5.90976750369703
C         2.47295546876368    1.10427465948655    2.39330322846312
N         1.00878467945120    1.22829381821803    2.25863335986861
H         2.95240242255640   -2.41304379323894   -0.18985914581849
H         4.60076820964157   -1.80391604464861    0.31552435263962
H         3.92615918531752   -1.55007633461121   -1.31099745419416
H         2.04078226324032   -0.32802137160480   -0.14480391187158
H         3.57922254806648    0.52424122665044   -0.08382686179467
H         2.31311039542081   -2.42916706341377    1.81663956115130
H         1.03127499355968   -1.48544900024230    2.24283053775261
H         2.15014426152140   -3.38701271980219    5.27577655323150
H         3.18464908117716   -3.77446394489042    3.84558144320012
H         1.45446391715676   -3.69593533159632    3.66887669076240
H         3.67640589886702   -1.65001518790744    5.32717446552575
H         4.74274896443489   -2.26352193240981    3.11668473410037
H         5.57764429261626   -0.84934235965865    3.87402401079863
H         2.87465668035644    1.91753346131129    1.78249044415946
H         0.61289673168716    0.40135030987957    2.72026892268718
H         0.64790440312462    1.35299604069957    1.31645312415633
