32
 energy: -49.309014720482 gnorm: 0.159295258989 xtb: 6.4.1 (79825abcba525fcdf90b791dcacef51065a7a4e7)
C         3.80921003694291   -1.45848756437619   -0.36714158451092
C         3.16692932849054   -0.24325111675082    0.29088420769457
C         3.04671800601172   -0.27451392744758    1.83869669210706
C         2.41670332127428   -1.61946833820014    2.31173341983877
N         2.31380072418574   -1.64261870920769    3.78856340936781
C         1.84312389739508   -2.94139628910711    4.24854331346397
C         3.58740738754870   -1.17454586965530    4.41041878778301
C         4.70458134945154   -1.19763875884219    3.33042059327767
O         4.41636705778311   -0.17876728416913    2.33061504045871
C         3.34998602092459    0.27707341059929    4.67204607980669
C         2.81133046261818    1.16299268939375    3.78624047188852
O         2.83040374016681    2.38914053584832    4.36501382068011
N         3.39654932171266    2.20691012458510    5.63902718720762
N         3.71186102522760    0.92249110366184    5.81465963701621
C         2.16520722460523    0.91150794145286    2.47547373035002
N         0.70501302553264    0.74533426587098    2.60788221119075
H         3.04658320422956   -2.23474941660454   -0.49480775678036
H         4.68868488107382   -1.76557969916205    0.20383031570663
H         4.04000409991579   -1.37911287026455   -1.43354764302993
H         2.19075015413393    0.12924832073908   -0.03911160981494
H         3.86846331210215    0.58033310552215    0.10875747606655
H         2.97153330921433   -2.54021238971404    2.08708547009451
H         1.38792518295552   -1.70858321832548    1.94472116451579
H         1.77761173627891   -2.94519116833592    5.34311099798788
H         2.40349705597345   -3.79886014272403    3.86311346935960
H         0.83927007624477   -2.97090338512771    3.81258177871265
H         3.82139239164217   -1.53375920206578    5.41961129754892
H         4.93759453964022   -2.21243741893750    2.98901804862975
H         5.65767140514620   -0.89701051643280    3.78015536123681
H         2.39347119273149    1.78657125977339    1.86065201958192
H         0.62203073844863    0.02450738860268    3.33396263285039
H         0.35676773385774    0.41187871454763    1.71288420674594
