32
 energy: -49.314336463092 gnorm: 0.145857403023 xtb: 6.4.1 (79825abcba525fcdf90b791dcacef51065a7a4e7)
C         3.69064142846048   -1.27876072853465   -0.39643523753520
C         3.02279266792960   -0.11018485615475    0.31821891238287
C         2.97184131637998   -0.30673474271213    1.85767457608879
C         2.24886197959719   -1.61274403150977    2.30625594395258
N         2.13405617919422   -1.71255856259549    3.77901131629845
C         1.81228662365548   -3.06534755089271    4.21071456144564
C         3.39083062138475   -1.22226057852555    4.41775704287873
C         4.58520247425581   -1.29494463544571    3.42619264630907
O         4.34788344972769   -0.35617275153801    2.33845888307849
C         3.32512953626588    0.24341014168258    4.69973042940999
C         2.86626194744230    1.18844955677827    3.83025045946559
O         3.24593196415910    2.39935264306887    4.30810538530397
N         3.92783011321442    2.17289218076329    5.51664556929565
N         4.00233407261829    0.85490802535414    5.70995199837822
C         2.25665021578225    0.98680741956016    2.49363410404046
N         0.79942237653437    0.95502060785044    2.72339363764244
H         4.29594686570239   -0.89291333751773   -1.22420810598825
H         2.98043318752450   -1.99860840547106   -0.81021545868115
H         4.25316624397961   -1.97439586902680    0.23320411209901
H         1.98736255442012    0.10983471158598    0.03527947116458
H         3.78190357320129    0.65285656569110    0.10578192420058
H         2.83821363559577   -2.41924560302490    1.84986524133199
H         1.22065984246716   -1.62240527514274    1.92713730325332
H         0.85560818141131   -3.38985108420998    3.78427760929136
H         1.59375657491871   -2.96928831643902    5.27881368830827
H         2.59608477078116   -3.78928429104711    3.96529312829358
H         3.56901332994100   -1.82890741673198    5.31357134076202
H         4.58348318168246   -2.27607785233440    2.93829734239070
H         5.56323040963887   -1.10669124655416    3.88340307064395
H         2.39220434391706    1.85000136171784    1.83608768910893
H         0.47662687515951    0.36574481629654    3.49942670867913
H         0.24278710805802    0.51406340322532    1.99593041808531
