32
 energy: -49.318955097806 gnorm: 0.142753998331 xtb: 6.4.1 (79825abcba525fcdf90b791dcacef51065a7a4e7)
C         3.32148937651651   -1.45996438282853   -0.51763001553995
C         2.99624354829369   -0.21460521729986    0.29822400381647
C         3.07698691768263   -0.35333979764203    1.84269311878705
C         2.28604681623751   -1.61358329135434    2.30721943549533
N         2.36082828996588   -1.62737585235394    3.78585704708529
C         1.74025930872149   -2.80177208004721    4.38220343744488
C         3.69285795003924   -1.23656668098019    4.33434166887257
C         4.88665253424413   -1.25414722920676    3.33957916937931
O         4.49283418841559   -0.57674091245913    2.11205911506846
C         3.45276054306116    0.17912585511675    4.74687547097010
C         2.93091719821673    1.09744873720149    3.88431129398486
O         2.85793321934691    2.26879815005375    4.56357178622123
N         3.34460034369752    2.04418560591299    5.86339604931753
N         3.68320584929339    0.75714596241880    5.95760705093271
C         2.50159225927223    1.01332249339575    2.46747251026046
N         1.03110076629886    1.13438636416681    2.48511093116415
H         3.07946191129897   -1.22112157045626   -1.55919500145387
H         2.75515495407161   -2.32854750830586   -0.17321867852941
H         4.38992853058095   -1.64796242814474   -0.37662421325422
H         1.97505644041308    0.09846046488775    0.05379482446576
H         3.61776510586134    0.62664777159653   -0.03285817087854
H         2.77115870250804   -2.39263805014394    1.70405049757080
H         1.21088771312911   -1.63107051552729    2.09567509487250
H         0.69370971705898   -2.75193711699613    4.05872996391384
H         1.89299596122839   -2.74325001446319    5.46436108964753
H         2.22387826728269   -3.71355033474114    4.01692445543053
H         3.93280827001641   -1.83953929766182    5.21814061670999
H         5.10369821025620   -2.29513036750321    3.07516955918238
H         5.71517366743198   -0.63088922563449    3.69471511619757
H         3.02765049502797    1.81457028141287    1.94105945789515
H         0.52138915887220    0.27504357520613    2.72047079938165
H         0.69849677274058    1.39261745606396    1.55981092440584
