32
 energy: -49.317401210458 gnorm: 0.151719726565 xtb: 6.4.1 (79825abcba525fcdf90b791dcacef51065a7a4e7)
C         3.44111129806900   -1.58194851694533   -0.33118318144641
C         2.92417560728478   -0.30816072128469    0.32651297271274
C         3.00005556435107   -0.35484966749927    1.87674328081330
C         2.05725770574305   -1.48298381687936    2.39445956424973
N         2.33180895370840   -1.76887157801651    3.82100836679920
C         2.19488811215717   -3.18631360550684    4.12440936250665
C         3.58479342662787   -1.19534286775520    4.39456301554374
C         4.68530471725062   -1.36770468515220    3.31097023398388
O         4.41985986346225   -0.48411797381610    2.18420883579995
C         3.24524676196075    0.22121634180046    4.72635258689593
C         2.94781397053175    1.21747208327872    3.84393398617283
O         3.00789776600296    2.40641339002903    4.49323317083557
N         3.33091567180074    2.14003351140864    5.83544775673752
N         3.55608857894646    0.82685665337453    5.90519118125237
C         2.54648194388986    1.08943484066574    2.42218564346975
N         1.13770739450286    1.52263851935891    2.49290806530377
H         3.67283158757193   -1.37334077090947   -1.38154945999137
H         2.70817981064012   -2.39135386482485   -0.36945734278941
H         4.36622945918820   -2.00071466473573    0.07573134054308
H         1.85854872073154   -0.31753339677886    0.07169862750882
H         3.43782355170155    0.59045810386316   -0.03716414082316
H         2.14760823482467   -2.38056276726414    1.76815178709745
H         1.03086640303520   -1.10487899561689    2.32677238525819
H         1.15385771981769   -3.53070053529762    4.13057561577282
H         2.64643623162332   -3.34181047653696    5.10916492678300
H         2.64830954631755   -3.81162508468529    3.34849043935599
H         3.87815288981581   -1.73035590804454    5.30558111692801
H         4.78392027108789   -2.43272164850861    3.07289251268134
H         5.65754697828137   -0.98639266120976    3.64318322927964
H         3.03485710446505    1.82071980528285    1.77214103703314
H         0.61815873629372    0.90962414725024    3.13161988966619
H         0.65602072749982    1.64429576922759    1.60596596948512
