32
 energy: -49.318591980333 gnorm: 0.146614184525 xtb: 6.4.1 (79825abcba525fcdf90b791dcacef51065a7a4e7)
C         3.62811853771375   -1.22258104262217   -0.60757567283321
C         2.97740129876623   -0.18839617096408    0.30311132438403
C         3.02047176492440   -0.37481258621628    1.84406735423726
C         2.20241925270304   -1.59863632907710    2.35654188754346
N         2.24341589689398   -1.65604819438913    3.83545190536654
C         1.73584425679899   -2.84951780997903    4.49722428537199
C         3.58289913164460   -1.27098129484001    4.36966006292587
C         4.68858354631965   -1.32900569158515    3.27920044264132
O         4.43013766625635   -0.36572807833948    2.21803143048652
C         3.52883123860298    0.19472630599844    4.65390319517086
C         2.93710921793132    1.10626988069933    3.83012669551463
O         2.91267455664826    2.28479893617855    4.50039018163501
N         3.52702117947574    2.09268150848203    5.75039334980820
N         3.90762225619552    0.81511512760330    5.80486727972608
C         2.38215329866273    0.96672639504005    2.46214247615881
N         0.91287531409842    0.97144007898854    2.59820423508156
H         3.29947634454390   -1.13647742415165   -1.64923841878590
H         3.51917818939804   -2.24444133661763   -0.23646378657235
H         4.70547969464396   -1.06065320737168   -0.70687542035958
H         1.88781657969374   -0.20004551841691    0.18801009512098
H         3.33220561856351    0.82730108401557    0.08843941755354
H         2.69971472500515   -2.48662760552394    1.94393876846858
H         1.17027854156465   -1.63312282483119    1.98977200935809
H         0.98427373458180   -3.36651961756307    3.88875445199344
H         1.31274957118734   -2.50766732722113    5.44693352282243
H         2.50687580075039   -3.61811771979983    4.61306967120071
H         3.87945231499300   -1.91547332640796    5.20568574494588
H         4.80424800784934   -2.34191516678815    2.87757462817596
H         5.66322300408147   -1.06154963866201    3.70295100609373
H         2.78806817890265    1.74345856106902    1.80810406487532
H         0.58227157099480    0.14909394474226    3.11600557058175
H         0.51270358991456    1.02079093346057    1.66497548336270
