32
 energy: -49.315273520889 gnorm: 0.150114440252 xtb: 6.4.1 (79825abcba525fcdf90b791dcacef51065a7a4e7)
C         4.11772251713726   -0.24434294141387   -0.48922703769164
C         2.93598652806074   -0.75471136803000    0.32646052776080
C         3.01632284115711   -0.61645808223543    1.87099402867328
C         2.02366893768586   -1.62959506539563    2.51735020305279
N         2.11046143493249   -1.63574306222997    3.99538300421210
C         1.81387780966540   -2.97021283678157    4.49655160293656
C         3.47054122766643   -1.21926492700700    4.44770936206860
C         4.56611230722895   -1.57149858410254    3.40336148759513
O         4.42922331279837   -0.75583325689848    2.20472510487079
C         3.37575717239237    0.25388204256079    4.67764468096731
C         3.08451085082112    1.12439383007730    3.66916108343122
O         3.06717419226816    2.37320833023652    4.19731135854713
N         3.28395467569418    2.21036346422350    5.57692238135685
N         3.43292006739148    0.91632469648275    5.86549373835508
C         2.54513056869055    0.85693450263490    2.31403610833665
N         1.08767551703147    1.08268995563210    2.36064157404439
H         3.95641047693862   -0.09378060057705   -1.56244193136590
H         4.84369580251005   -1.06053410162767   -0.46503460290610
H         4.54454258472146    0.64083829759215   -0.00853282030089
H         2.80265797673208   -1.82407722352289    0.12832163614164
H         2.03087807744774   -0.23213624626040   -0.00716348470068
H         2.28095239169145   -2.58924430573159    2.04942799764709
H         0.97240623294633   -1.41028752676110    2.29877562658378
H         0.81540715696535   -3.31430710201219    4.20152592206714
H         1.76457400033801   -2.72030182578214    5.56094444735584
H         2.61927383674157   -3.70370829215790    4.38711086039439
H         3.67854916036303   -1.74481086508618    5.38727675190493
H         4.47794525873241   -2.62006497245802    3.09774364231275
H         5.61972077915488   -1.52616213079441    3.70147746846706
H         2.88169250224584    1.60930778687499    1.59535224496238
H         0.67670405214094    0.69387014370940    3.21714133053013
H         0.63703889348764    0.65756545750614    1.55461141861104
