32
 energy: -49.316268393321 gnorm: 0.148674677941 xtb: 6.4.1 (79825abcba525fcdf90b791dcacef51065a7a4e7)
C         3.84026297264513   -1.51319082728726   -0.25991308426912
C         3.04592592275036   -0.33569719469206    0.29222773609757
C         2.96487394969642   -0.29773955715030    1.84243463613673
C         2.20556437978780   -1.54940971035289    2.37755651690388
N         2.26941551947848   -1.78246913351863    3.83829538054057
C         2.06280766216565   -3.11625354018389    4.38443980343789
C         3.52951688643084   -1.19704411799736    4.38354056703302
C         4.63823200825158   -1.30963545887185    3.30045192259963
O         4.37368777429865   -0.38083568769540    2.21044043493171
C         3.34495732314287    0.25504746853405    4.68251226382515
C         2.87295866701268    1.19496676921672    3.81451263249066
O         2.82638138128037    2.40710935940449    4.42058345698702
N         3.26508263252509    2.18294368369549    5.73744706749359
N         3.60474475900595    0.89800633523482    5.85392066788966
C         2.41736883559500    1.10640895775446    2.40617150645768
N         0.94712083393375    1.22542864623108    2.36721057606937
H         3.20527378703054   -2.39747950586033   -0.13620750092794
H         4.81186111789217   -1.77926343904223    0.16316244394286
H         3.98689019518214   -1.31359971883572   -1.32548897358442
H         2.08763572593729   -0.19973335802393   -0.22136021830264
H         3.59103745351711    0.58466658181523    0.04851686208217
H         2.49947825692529   -2.50523870477753    1.92359815589892
H         1.18273747588716   -1.42158739027257    2.00538653169323
H         1.75555721002394   -3.01931687110481    5.43257390808910
H         2.92431540168040   -3.78425891671081    4.28752885588589
H         1.26462535892609   -3.63651048583626    3.84509451564698
H         3.77784060483129   -1.69543000192977    5.32810372803561
H         4.70136506136039   -2.34077879016786    2.93517830158751
H         5.57474994366697   -0.94533139149711    3.73775737804524
H         2.81430901172659    1.96375645352697    1.85549940166975
H         0.65462566935895    0.38263046620472    2.87495858035398
H         0.43695625719207    1.38322965921792    1.50215580460239
