32
 energy: -49.315448309644 gnorm: 0.153520975963 xtb: 6.4.1 (79825abcba525fcdf90b791dcacef51065a7a4e7)
C         3.52870828125837   -1.42448856168039   -0.54834660741429
C         3.33901722389095   -0.21995284367526    0.36567367989010
C         3.13318683389622   -0.32432893486505    1.90121629180403
C         2.45941858046321   -1.66317690884884    2.32912641313751
N         2.37096631619885   -1.75714607853776    3.80408325592015
C         2.18794808989545   -3.13909518822585    4.22439549084050
C         3.48136661864958   -1.11133397036843    4.56422015639536
C         4.69220211259610   -1.13791595890387    3.59047590973331
O         4.47212524007719   -0.23167766200194    2.47196081000668
C         3.14385679953183    0.33085460642132    4.75965688605087
C         2.73446101592111    1.17374980134497    3.76891112860123
O         2.77784809082151    2.42553469889524    4.28846196463882
N         3.27579282043120    2.35908982213013    5.60165461089938
N         3.44314866990545    1.06251333602311    5.86789113060207
C         2.26210970316715    0.93995288965693    2.38289073397050
N         0.81735591963837    0.64006099225476    2.39090202247203
H         2.67807640090458   -2.10514295391098   -0.43165983032815
H         4.46448485357119   -1.91647232384550   -0.27254835227560
H         3.56102862796606   -1.05378674160142   -1.57709520768028
H         2.43652162750049    0.27668291572015   -0.00773424474417
H         4.14860797368466    0.48957084246416    0.15413171478197
H         3.03594241402187   -2.46073641446165    1.84169258563789
H         1.46350823573502   -1.70611219952552    1.87377702743267
H         1.14195131724771   -3.29251445743426    3.93329766915234
H         2.15484113893615   -3.26191098354411    5.31142755688456
H         2.87440505294186   -3.80927585545756    3.69686318806510
H         3.64918121019967   -1.51268501901398    5.57070330062212
H         4.80522879619432   -2.21606282189361    3.43081538190203
H         5.55517381284323   -0.67224861553841    4.07981539203977
H         2.47989149008259    1.78658094445700    1.72589908849003
H         0.67464508662888   -0.12853707917164    3.05615449317613
H         0.45378462216446    0.39539676128722    1.47359937732376
