32
 energy: -49.315533356185 gnorm: 0.154663534780 xtb: 6.4.1 (79825abcba525fcdf90b791dcacef51065a7a4e7)
C         3.93866830795076   -1.26876972372716   -0.36141218879505
C         2.98748257019139   -0.28274213780584    0.30590886054241
C         2.95298181384593   -0.37481891125595    1.85558082607364
C         2.19559127831778   -1.59808395772475    2.45521974001184
N         2.33929078847418   -1.73609388999285    3.92234461685003
C         1.99302340195102   -3.06767834573371    4.39870909812284
C         3.61316107995656   -1.18905131276535    4.47539897425227
C         4.70133481310670   -1.29536440377615    3.37105188458596
O         4.35846037317885   -0.44662937294719    2.23841616612473
C         3.33301989765548    0.26689600849149    4.65912320313913
C         2.76173987541655    1.17456120030245    3.81684213119765
O         2.77866314850446    2.39124259754010    4.41532430297288
N         3.36701515016001    2.21374816610070    5.67990978903410
N         3.74222626407785    0.93669697923728    5.77132825567112
C         2.30000861603627    0.98287382867975    2.42081581205269
N         0.82658625802677    1.01451010308397    2.34775058079061
H         3.74399266304824   -2.32295156870645   -0.13495505405378
H         4.93142627769307   -0.91954363600015   -0.06770612941795
H         3.79048740747249   -1.25162591622046   -1.44517260509748
H         1.98644670655144   -0.53645526516307   -0.06033655656363
H         3.28216091678238    0.74529711820613    0.06114160447925
H         2.64050915713430   -2.52068136562869    2.05906984646964
H         1.15231509611347   -1.59835614825278    2.11966251895801
H         2.02151993883574   -3.28030392473728    5.47405228405385
H         2.68033987419390   -3.70077671096947    3.82897141167505
H         0.97558305900254   -3.21280228980874    4.02133685398140
H         3.81847202293901   -1.77033990843975    5.38215346111696
H         4.92752537516401   -2.31181323398577    3.02997011713963
H         5.62886890412822   -0.84930684704925    3.74752568347469
H         2.64896898025606    1.82095613290449    1.81115138617472
H         0.53553109547328    0.09003504702174    2.68583783425923
H         0.53268766857619    1.22247603558427    1.39703368895307
