32
 energy: -49.308186776572 gnorm: 0.155303338838 xtb: 6.4.1 (79825abcba525fcdf90b791dcacef51065a7a4e7)
C         3.65659495019971   -1.41132164062258   -0.45888983837995
C         2.87911004335410   -0.35476093665366    0.31668658427320
C         3.02798094519681   -0.41911121274288    1.86098193611715
C         2.17758471042533   -1.57410744526409    2.47122333077741
N         2.36059599863987   -1.77889636263500    3.92611853303013
C         2.14755821698628   -3.16568637937686    4.31518115803492
C         3.59474207911468   -1.15412515481426    4.48684537011919
C         4.72202818262038   -1.24073804437996    3.42066936221098
O         4.44687986835669   -0.53058466326237    2.17939852968676
C         3.37124690426528    0.30318033881567    4.72835492701013
C         2.90733243068879    1.19819160939056    3.80999086636922
O         2.54281458812689    2.31177341524675    4.49251796151854
N         3.09871143253602    2.21097373968423    5.78001822418703
N         3.49983083703836    0.94638809968037    5.92118064914076
C         2.58221871350426    1.04015949045027    2.37188231678205
N         1.14777903060725    1.29017019097807    2.13273745715630
H         3.10587945618060   -2.35670112513344   -0.51763401360778
H         4.62792533885225   -1.47531860237535    0.03730786508260
H         3.77131326585748   -1.16828753750432   -1.51934363758572
H         1.78632442134997   -0.39282421831445    0.24633296547629
H         3.23445802300827    0.64863961621400    0.05111889851937
H         2.52527921054768   -2.52983281726958    2.05677167078409
H         1.13937853018638   -1.34279764170188    2.20731498579776
H         1.86195556634307   -3.18625285154813    5.37366724811564
H         3.04870891421208   -3.73357423398910    4.06368701122719
H         1.25987726681255   -3.65329362406188    3.89934787357957
H         3.96985782921799   -1.62529370669080    5.40311011458576
H         4.91148344864488   -2.30414705155035    3.23645439736945
H         5.71012858774528   -0.84070136016850    3.67492826547752
H         3.05818654756335    1.86316650359398    1.83154901782266
H         0.63064399561734    0.64996308701592    2.74623272665817
H         0.96518173835261    1.24388818375390    1.13373544407495
