32
 energy: -49.316944210674 gnorm: 0.146521582546 xtb: 6.4.1 (79825abcba525fcdf90b791dcacef51065a7a4e7)
C         3.48623532264377   -1.47548078442905   -0.41818646355940
C         2.79331124548211   -0.33253658417325    0.31383598987514
C         2.98318983094181   -0.36026110551654    1.85472181202698
C         2.17121601560507   -1.47617531809013    2.57930349994835
N         2.37681164410043   -1.76762274921655    4.01629359426820
C         2.03695957606280   -3.14610010943357    4.33915908668754
C         3.71819028125820   -1.24812221313367    4.41465621590503
C         4.68367326304905   -1.41287504315522    3.20812972955651
O         4.41284752622427   -0.49744795480851    2.10839140847673
C         3.46629369246730    0.20880255975768    4.62897983494706
C         2.88320326506674    1.16838107932517    3.85511356431629
O         2.74418636918803    2.29313779413005    4.59967892223538
N         3.29915906784247    2.02249625858057    5.86284845443566
N         3.66532054877429    0.73956525103051    5.86662378983551
C         2.52706414679548    1.07610545040817    2.41863194632277
N         1.16641562575363    1.60094984641438    2.19393930979343
H         3.64796293426275   -1.13212033098418   -1.44601358125831
H         2.97283797530154   -2.43164325343315   -0.29182589920867
H         4.43722148826693   -1.44202382478198    0.12153019960686
H         1.70065521593168   -0.30045658267586    0.23865264810464
H         3.23917007531726    0.60242253382080   -0.04765039150442
H         2.33555199455357   -2.35250797132364    1.93812692353504
H         1.11831221869899   -1.19076814881235    2.47461221716348
H         0.99642335251331   -3.33865348573755    4.05177045663779
H         2.10824231108482   -3.32254998071492    5.41693583435612
H         2.71584193287706   -3.89117935203189    3.91180526777700
H         4.08232066713492   -1.66784802115645    5.35990329173494
H         4.61270118273560   -2.43312323008384    2.81478030215311
H         5.72326817935102   -1.16309095514305    3.44869089672326
H         3.25150360140733    1.75677600008262    1.96286765482444
H         0.43392172353424    0.88784222302907    2.28667777383300
H         1.10991181943608    2.07446066936427    1.29611770372590
