32
 energy: -49.311444915341 gnorm: 0.143995410055 xtb: 6.4.1 (79825abcba525fcdf90b791dcacef51065a7a4e7)
C         3.22686728918280   -1.51323746405103   -0.49302970379577
C         3.08895670053305   -0.21031611329343    0.28523677166954
C         3.02543328513131   -0.34921114339699    1.83049551262462
C         2.25821120883154   -1.61001628797800    2.33181904958486
N         2.36612676769342   -1.78464975644374    3.79810997312567
C         2.00376676342156   -3.12261417081061    4.24362970517908
C         3.59681687526640   -1.19977688449845    4.40736836687354
C         4.80524285724091   -1.19649228362343    3.43027937625311
O         4.41515403384087   -0.40928412923619    2.26885278052304
C         3.37248220566714    0.24788632868767    4.70056021284958
C         2.99842282627601    1.21323130408876    3.81295498551280
O         3.09799850081052    2.41030356016602    4.44214782621267
N         3.36713806662205    2.16253454958445    5.79972405368455
N         3.48382882217347    0.83908927534587    5.92169258664731
C         2.42526239650612    1.00387751700073    2.46147897436460
N         0.95824009082905    1.12118760623831    2.56823439307740
H         3.64694499134583   -1.38107317647312   -1.49629842480063
H         2.30690721502689   -2.09862910082795   -0.56217148656650
H         4.02796102831273   -2.06846943397055    0.00371410258218
H         2.17418449402584    0.35393402788779    0.07218173902555
H         3.88085469428320    0.49627824189594    0.00732845669489
H         2.79903470092025   -2.45342465034356    1.88210256372121
H         1.20445051442034   -1.60258923881122    2.03089190144756
H         1.06434341352704   -3.08886701407064    4.80819108981873
H         2.82634785494739   -3.46616743777001    4.87857064965989
H         1.85716414124874   -3.75182777333303    3.35974423085863
H         3.85356159255528   -1.69860577945754    5.34944299413719
H         4.96066909603833   -2.20431000041154    3.02926403343855
H         5.74244860594230   -0.66737573898384    3.63692016883106
H         2.70187962621378    1.87784377167730    1.86523079622984
H         0.53027738261813    0.28242853318646    2.97689239227042
H         0.49174151225384    1.42034784308226    1.71596035023043
