32
 energy: -49.311471603021 gnorm: 0.149362251779 xtb: 6.4.1 (79825abcba525fcdf90b791dcacef51065a7a4e7)
C         3.98346116824443   -0.00958393277719   -0.45164693846392
C         2.92246160089598   -0.83521429683362    0.26594383000037
C         2.95367311019954   -0.62943150946011    1.80471961627129
C         2.12283317967641   -1.73783408460550    2.51937573732054
N         2.23435718648069   -1.67250014173259    3.99431491233018
C         1.59885567858021   -2.72868815463938    4.76926400682313
C         3.61193813732115   -1.34198142183862    4.46431313082387
C         4.61140291663676   -1.63865843515668    3.31189830268109
O         4.34458807116969   -0.69065064631428    2.23911277931372
C         3.42280527975395    0.11918814688171    4.71175710788320
C         2.93822011917189    0.95876287644138    3.75261902836942
O         2.79372616029972    2.18951594237295    4.30320900929646
N         3.29509709621603    2.11448806801204    5.61463449552453
N         3.67994533299717    0.85494850452961    5.82783010650768
C         2.60801341888590    0.85849005248950    2.31048929259149
N         1.21506413489228    1.20552507518759    1.96906317293249
H         4.13178393209812   -0.43716891922932   -1.44947069097632
H         4.92582976866683   -0.11518241527939    0.09110611522698
H         3.71756310268999    1.05149310079648   -0.43743862385249
H         3.15512868295314   -1.88461523531332    0.05333490323532
H         1.98300472286506   -0.63773639588446   -0.26512518304966
H         2.47719432977195   -2.71427736053721    2.16292190300702
H         1.07929827333499   -1.56996585622129    2.22975689045102
H         0.50930430212440   -2.64963675089425    4.67432543156183
H         1.67390209425818   -2.37230561301543    5.80133862770353
H         2.01708747962315   -3.73261229635074    4.64327156201614
H         3.93607137149424   -1.90970465261531    5.34458620961896
H         4.70823731723498   -2.65805047960273    2.92185968873238
H         5.62739693595257   -1.35697612646702    3.61094777089328
H         3.35641468059074    1.51450817776046    1.85729863833390
H         0.57054188073697    1.07671525329270    2.75752326359059
H         0.91040493786543    0.52373679970848    1.27925425805913
