32
 energy: -49.315683834308 gnorm: 0.152092525825 xtb: 6.4.1 (79825abcba525fcdf90b791dcacef51065a7a4e7)
C         3.84725092325055   -1.38039194174823   -0.39319859610542
C         2.91045089946503   -0.41970937953591    0.32917029338306
C         2.95645631265149   -0.35897450515951    1.88008821890088
C         2.28681515494760   -1.64081087805473    2.46151822629847
N         2.28677899633697   -1.72648026370223    3.93962933668914
C         2.04512641559872   -3.12013522755838    4.28498605305147
C         3.58626155237602   -1.18209291873528    4.43243531361888
C         4.72691418427248   -1.20730292368015    3.37731300929035
O         4.37693013303792   -0.41625696033828    2.20576055309963
C         3.36162771123971    0.27792308843419    4.65583895904530
C         2.76574880254764    1.16562224402149    3.80933266033158
O         2.70871871137033    2.35251341892634    4.46264563841330
N         3.21161737689084    2.13303653301870    5.75715775996899
N         3.67404836436567    0.88393963799635    5.83406667376915
C         2.41339932065950    1.07364787635079    2.37189749437212
N         0.96234130281346    1.32148397087486    2.27030654078995
H         3.79899634515991   -2.38018275197522    0.05241405345050
H         4.85426405562501   -1.01312653899360   -0.18146487230016
H         3.76564389496921   -1.60163674924758   -1.46145846697379
H         1.86433200672013   -0.70291825517739    0.16790388544949
H         3.02827323574498    0.58258224491767   -0.10110920213286
H         2.86527097263073   -2.42114452280141    1.94913077145354
H         1.26472774103638   -1.68494844348536    2.06856388793631
H         2.22698186007920   -3.35272212479310    5.34102421152946
H         2.65393186585387   -3.80033126853662    3.68124126235354
H         0.98000009413814   -3.34164923675632    4.16213213921758
H         3.84011307128939   -1.64307856795863    5.39436273435624
H         4.93560956027703   -2.20221659821255    2.96833844828771
H         5.57399548878761   -0.64168867573214    3.78173005157276
H         2.93747730039114    1.84813999779298    1.80501989129726
H         0.54492992228044    0.81581646820036    3.06007761084545
H         0.49012831716412    0.95563298585787    1.44771504566711
