32
 energy: -49.310354742567 gnorm: 0.139247417896 xtb: 6.4.1 (79825abcba525fcdf90b791dcacef51065a7a4e7)
C         3.33404954946584   -1.67599193120473   -0.30521676230436
C         2.74398438695183   -0.47044717912923    0.41645286525065
C         2.96417094988043   -0.50289649243003    1.95320807437758
C         1.90441512930592   -1.35012532864303    2.72047955866149
N         2.41649667722203   -1.84592124662750    4.01821242693234
C         2.78891334458713   -3.25339411999837    4.03456257959755
C         3.62462490257699   -1.09005748880211    4.46202138027660
C         4.78956877696753   -1.18103056329785    3.43750359465127
O         4.33248099546084   -0.99459732244436    2.06743384980760
C         3.23702915329891    0.32574766625676    4.74001701939651
C         2.86699369742079    1.27296615919016    3.83144381442257
O         2.40072303399079    2.35037653490138    4.51008914457873
N         2.67727455616424    2.11022347338958    5.86754432489031
N         3.09633240693597    0.84938118133080    5.98865452934548
C         2.81620560141138    1.04500143576267    2.36710712111967
N         1.58369628171260    1.70719303180227    1.89834716396777
H         2.77027202331157   -2.60832719515932   -0.18951602308768
H         4.35184121195982   -1.90310988348914    0.02083241159501
H         3.32996626379584   -1.32602034375840   -1.34169703023715
H         1.69671060669497   -0.31960759717718    0.13177074825307
H         3.27799135048286    0.45816081871137    0.17952501452435
H         1.60901846018895   -2.21456142445385    2.11091932654194
H         1.11579447516372   -0.60536104512331    2.87677270706392
H         3.15512749862369   -3.45020018792959    5.04922470414928
H         3.51718029734236   -3.39206255894221    3.22944344942232
H         1.97554381850239   -3.94697581114457    3.79785585880783
H         3.94486112204501   -1.49162109691268    5.43075672003794
H         5.30089843532178   -2.14845577437219    3.38007880279963
H         5.58379405765461   -0.46739661530207    3.68438846649236
H         3.67053903852218    1.55531360562923    1.91373986583574
H         0.75125252316663    1.12335130957217    2.03918912227152
H         1.73749906848587    2.00798238300299    0.93951491157744
