32
 energy: -49.315113332071 gnorm: 0.154106490965 xtb: 6.4.1 (79825abcba525fcdf90b791dcacef51065a7a4e7)
C         2.92413058483873   -1.51599970196845   -0.54000631182567
C         3.07096260782108   -0.24138575630135    0.28225990037821
C         3.15671287030303   -0.29970168288706    1.83158161090575
C         2.38685140910901   -1.55275777649098    2.34805848916188
N         2.45742125638293   -1.71159230764148    3.81841326814476
C         1.97940682097660   -3.01144663687781    4.26765963607006
C         3.73745206758353   -1.18237232730951    4.37457650060239
C         4.87774377337585   -1.26801774195835    3.32224256827849
O         4.56560178808606   -0.40073822638012    2.19478023218911
C         3.43494573777071    0.22847119308658    4.76190935583546
C         2.85578732969653    1.11519742693862    3.90287123873631
O         2.80491963928811    2.31776245680622    4.52739566513938
N         3.15327294018855    2.08721741684052    5.86990740265462
N         3.46449474880527    0.79627309783229    5.99876468617233
C         2.56100867515864    1.06084957801190    2.45063808124717
N         1.09487640991919    1.21939347605871    2.39932689296215
H         2.61912734549829   -1.22790819034769   -1.55216099671611
H         2.15568196373002   -2.08013717917829   -0.00612793820689
H         3.78255978131179   -2.19073760116661   -0.47206363698565
H         2.29105499470170    0.49875167377003    0.07126333077307
H         4.01342257106101    0.20296495033717   -0.06115342680680
H         2.88516511482227   -2.42722671126975    1.90867237123426
H         1.31640958756155   -1.53412599550478    2.11389812657651
H         0.91835710010656   -3.09691919171233    4.00450076692835
H         2.06791657921412   -3.05808395043947    5.35752636405827
H         2.64318535188554   -3.78309050114384    3.86439864590044
H         4.01989042199671   -1.87001406451629    5.18057285502928
H         5.07590163154663   -2.27415510040340    2.93612310670285
H         5.77783225373924   -0.76363751393767    3.69164839348500
H         3.04354375779677    1.93622351557454    2.00709963085707
H         0.74578122488963    0.50120702768971    3.04431604483216
H         0.75078157348299    1.05760227878607    1.45650603525608
