32
 energy: -49.309233891847 gnorm: 0.160315904328 xtb: 6.4.1 (79825abcba525fcdf90b791dcacef51065a7a4e7)
C         3.73346779020554   -1.39075723928288   -0.39474962636310
C         2.88841392431499   -0.35740943637666    0.34036830409653
C         3.03995165480714   -0.39701674275228    1.88523697599956
C         2.22434040033038   -1.62816094608866    2.38388198495419
N         2.38468787393931   -1.73996097206510    3.85151311649740
C         2.23276683871303   -3.08343551923089    4.39182555229956
C         3.62471257297504   -1.14260443871743    4.42889872054680
C         4.74398242157380   -1.27147024121631    3.35855501960747
O         4.47016661113575   -0.51118863773399    2.14703758910467
C         3.25460133251897    0.27252730782419    4.73293173435170
C         2.74280919562105    1.18322429824415    3.85637360290380
O         2.68966517764746    2.39596712665148    4.46070088783396
N         3.12520220541891    2.15494700481094    5.77563647608026
N         3.43681414523015    0.86854307178674    5.94315772923743
C         2.47112436654690    1.01432305765145    2.40844784557384
N         1.04561416418759    1.33629383658671    2.20456481533899
H         3.20676864384892   -2.35063717165210   -0.35352670839520
H         4.65566923853641   -1.44326815954653    0.18884063067641
H         3.83202487876007   -1.22272389459795   -1.47124366852019
H         1.82313652461442   -0.53236748872634    0.15287803970531
H         3.17753155029585    0.60922720703319   -0.09048624874749
H         2.62041333710149   -2.53652190874415    1.91051191939618
H         1.13146956008866   -1.63659855582850    2.30272753497645
H         2.59217244716991   -3.05797828693522    5.42747230645721
H         2.61865397796632   -3.79398482306554    3.65424212913905
H         1.17317550202276   -3.34855437400018    4.46688427558416
H         4.01066112188520   -1.66953749270557    5.30960184208714
H         4.71757572149260   -2.34829949844779    3.15753609720379
H         5.72351913827933   -0.86470807017504    3.63436601606825
H         2.96471040468015    1.82747058708737    1.86899449825534
H         0.53447957019236    0.51692318179321    2.55247771066443
H         0.87636061788544    1.47221603337198    1.21140460175309
