32
 energy: -49.319227504174 gnorm: 0.141380906395 xtb: 6.4.1 (79825abcba525fcdf90b791dcacef51065a7a4e7)
C         4.12018693832971   -1.30382196274451   -0.22410935776098
C         3.05176574274475   -0.34939008113846    0.29536924771408
C         3.03635048341377   -0.38842972670120    1.84759020462031
C         2.34353711132428   -1.70656346202636    2.30815258486009
N         2.34025398200085   -1.71393425083079    3.78872226863402
C         1.85430164803848   -2.97004238305241    4.34188053740061
C         3.57753284817567   -1.14709205410747    4.40166691962885
C         4.76819535876502   -1.21841486564000    3.40555303397567
O         4.41990879523112   -0.33024253123318    2.30526940035045
C         3.26426086310432    0.28505454176803    4.68947425595250
C         2.63066263382323    1.14333967505348    3.84003074706418
O         2.68828877458854    2.38913664917827    4.37243101599253
N         3.38923946447172    2.27292364517296    5.58569169180351
N         3.77746723548577    1.00413273187141    5.72515231219283
C         2.21387536703054    0.85853777975964    2.44575476232360
N         0.74134795710773    0.95314744899322    2.45073785289481
H         3.96878221817144   -2.24412064207625    0.31755087596828
H         5.14055208035095   -0.93257368608254   -0.10237116159558
H         3.86758317148765   -1.45033607551742   -1.27839256498897
H         2.02370457168219   -0.62054986977938    0.03052692819686
H         3.30169282889060    0.65047138906741   -0.08069529067595
H         2.87295036062132   -2.57924651826718    1.90291373954772
H         1.30206027915811   -1.72199894434036    1.96740096275609
H         0.94773458353055   -3.28835560725515    3.81348910313753
H         1.73287099734118   -2.88601885852741    5.42632193533776
H         2.44455364655321   -3.87608756104311    4.17059034521133
H         3.83295944785398   -1.69457766474255    5.31669122008203
H         5.03639764066992   -2.21269592593257    3.03120043031998
H         5.65951341197065   -0.75491381407907    3.84343230362134
H         2.50153138541360    1.66570180645647    1.76635337826984
H         0.25474038690247    0.17829177803405    2.91601409125343
H         0.36759038555637    1.04195847689387    1.50951168925061
