32
 energy: -49.320530814543 gnorm: 0.139548074643 xtb: 6.4.1 (79825abcba525fcdf90b791dcacef51065a7a4e7)
C         3.69031953987070   -1.45318406549445   -0.39742837984219
C         2.85948136135243   -0.37328976129706    0.28510975386196
C         3.11544678681114   -0.35831387668616    1.81658259417166
C         2.30936527474419   -1.58075915665537    2.35085290469641
N         2.33161611375365   -1.62188365333162    3.83070606599840
C         2.03308722635485   -2.94016666475869    4.37195628154285
C         3.62978042286355   -1.12088913959740    4.37074693642668
C         4.73685123654655   -1.36211056855550    3.30716174334249
O         4.52734189118590   -0.49625549518317    2.15512939644474
C         3.45637269804806    0.31383596160050    4.74957397262147
C         2.88604617490680    1.19019776276612    3.87414720547143
O         2.65247996923713    2.36024007547300    4.51852965848433
N         2.96158863559739    2.14800028027424    5.87361080160982
N         3.47857021861588    0.92165195140788    5.96742053533043
C         2.52529978966194    0.99866654679379    2.44866233438258
N         1.07206164310085    1.17030854240851    2.25905555266122
H         3.22848709322306   -2.44474399265193   -0.33417883233479
H         4.69822181365639   -1.41092118675072    0.02225882655739
H         3.75867506017480   -1.26479592510364   -1.47289365599902
H         1.79463965140634   -0.47970854816871    0.04980988328222
H         3.20970072992968    0.61666200118925   -0.03262119232867
H         2.64488330424484   -2.51649989316926    1.88406649268515
H         1.25395682839194   -1.58104550619194    2.05566339187506
H         1.68347645743546   -2.78456079592880    5.39954753580678
H         2.93865740243688   -3.55427321684521    4.39714164255699
H         1.25650549874709   -3.45956998175753    3.80117030173552
H         3.83415606790405   -1.60430593582144    5.33344705764920
H         4.83032599721767   -2.42688428615503    3.06594283130251
H         5.76222002205404   -1.10212780409597    3.59360050427542
H         2.94247386680530    1.78438379981063    1.81269049523321
H         0.58632712761822    0.53258238031951    2.90017765231193
H         0.81718571358188    1.06114316831779    1.28099113860044
