32
 energy: -49.317453483804 gnorm: 0.146229570277 xtb: 6.4.1 (79825abcba525fcdf90b791dcacef51065a7a4e7)
C         3.68662707142947   -1.48232018139249   -0.43213788583244
C         3.01717094376049   -0.36032845649018    0.35226325533284
C         3.06281006128678   -0.39621110390163    1.90396591629710
C         2.36048756715108   -1.72525246167327    2.31624835548736
N         2.32741724996354   -1.71640869275318    3.79644423682142
C         1.88272924332442   -3.02442455973037    4.25610548009484
C         3.54258553955406   -1.15320102157748    4.45525632722141
C         4.73952976990451   -1.26065142849033    3.46997161396967
O         4.46553576174148   -0.43611294852433    2.30127948710120
C         3.33722195893314    0.30590538308581    4.70193544096102
C         2.81544414600835    1.22956478627535    3.84504828354689
O         2.72397217695717    2.41276266016923    4.50114019676068
N         3.35171336751124    2.24804981443418    5.74839697808188
N         3.63994809187230    0.95036713821938    5.86215490594457
C         2.44656010256636    0.99470935027023    2.42815140045941
N         0.98755591171722    1.19938029289613    2.34611851387130
H         3.31380027268022   -2.45198584480860   -0.08395764150915
H         4.77644189727188   -1.40425634618813   -0.43255913379906
H         3.39973173046067   -1.36898737168882   -1.48172583651783
H         1.97105152603132   -0.35393249242016    0.02642262805445
H         3.54087510456882    0.52421854116944   -0.03104029343920
H         2.91084964128620   -2.59398835729552    1.93092750179238
H         1.36038107289158   -1.76365453251588    1.86977752916712
H         1.49046243956409   -2.95696720187652    5.27784953820330
H         2.67357972378268   -3.74552151504809    4.02720986529934
H         0.96423760766148   -3.24865649244822    3.70406492233073
H         3.73040465141323   -1.76350887479167    5.34660419651523
H         4.95380012160438   -2.30261236734168    3.20715458978127
H         5.63588876313192   -0.84875122852300    3.94735839354639
H         2.86842146820574    1.69928560536841    1.70603556156454
H         0.42886437770471    0.75412205659831    3.08319320015937
H         0.61538485731116    1.07728076758425    1.40799846471730
