32
 energy: -49.321594822266 gnorm: 0.145559083869 xtb: 6.4.1 (79825abcba525fcdf90b791dcacef51065a7a4e7)
C         3.76657376154304   -1.25400686199961   -0.41951002212122
C         2.96898278742648   -0.15289084995665    0.26875900249572
C         2.95969821851793   -0.33678603588561    1.81059167076333
C         2.13740128361271   -1.57207008512972    2.28754626156953
N         2.20428862809015   -1.67828479028225    3.76280766410119
C         1.75367837279308   -2.92955474076713    4.35544185613894
C         3.50848079151273   -1.25785425062828    4.35457718424686
C         4.63249713620653   -1.38809097510670    3.28938580447114
O         4.36014065254424   -0.46368725614380    2.19756282973255
C         3.34992146707884    0.18067928913825    4.72538232643897
C         2.93552464578886    1.15404655449953    3.86486747854253
O         3.07914965086199    2.39830741383229    4.38445163762045
N         3.74059594762442    2.17358154844489    5.60462616818879
N         3.90474781139494    0.85951440359614    5.76674387033224
C         2.32632290649661    0.95715288132977    2.52735657912514
N         0.86707192539200    0.98520738944918    2.74441033940917
H         3.87444785793674   -0.98726477645138   -1.47671986015381
H         3.34961723970588   -2.26390321216108   -0.42637390094046
H         4.75149259588603   -1.30329428163376    0.05408660778736
H         1.97422468799912   -0.15531994866753   -0.19062022380360
H         3.47689244997632    0.80473175412607    0.09965025357291
H         2.56831128056830   -2.47409715629173    1.83286355562491
H         1.09380753639023   -1.57670869550306    1.95301004118130
H         0.80768360006667   -3.12873408387177    3.83794196380972
H         1.51540963458722   -2.69479735821875    5.39752413781735
H         2.41941431984756   -3.79666157719894    4.29563384865963
H         3.77665395718890   -1.89488687045288    5.20576770656383
H         4.77250855753444   -2.42921774509110    2.97774657233089
H         5.59885218405875   -0.98245827322324    3.60975962007796
H         2.66375852816456    1.81207730540567    1.93483027194737
H         0.77456690081368    0.38254724721481    3.57019106204306
H         0.43924739154710    0.48431491649100    1.97009663181057
