32
 energy: -49.312278538993 gnorm: 0.154052451624 xtb: 6.4.1 (79825abcba525fcdf90b791dcacef51065a7a4e7)
C         3.40147315542206   -1.55877554807850   -0.40115636759786
C         3.04814105608329   -0.25707579342538    0.30810822827744
C         3.09764645318578   -0.34823032885369    1.85742798386213
C         2.32075545029567   -1.58933927955818    2.39191237478634
N         2.41245679280484   -1.70664691278922    3.86499807396130
C         2.15810772375905   -3.06663828608626    4.31850816149269
C         3.63283803849348   -1.11620834181030    4.48943551870566
C         4.77157158862203   -1.19290159198675    3.43472651561775
O         4.50147751843596   -0.38920615067246    2.25070770904846
C         3.31522721518343    0.32028617793186    4.74947998157297
C         2.83276571774720    1.20845803534666    3.83403691215922
O         2.65787079075274    2.38147919242539    4.49146679993908
N         3.02582674725511    2.18855183494584    5.83468169328880
N         3.43453489125053    0.92504813150294    5.96319819893454
C         2.49538588503647    1.04187456044310    2.39972381251680
N         1.04029074111351    1.11320572824136    2.16536766582510
H         2.46926679223074   -2.06300192474958   -0.67905538059952
H         4.25898085948482   -2.09284757935764    0.01506244133260
H         3.79033172939941   -1.28577331710854   -1.38657349821357
H         2.15088924113234    0.17633713637131   -0.14760139979346
H         3.86321384330972    0.45131796210653    0.11459933081372
H         2.59141358790737   -2.54261511982589    1.91853940238378
H         1.24035445678195   -1.55425329612744    2.21156109475767
H         2.34385821567200   -3.16769800317824    5.39445813569540
H         2.64587429192442   -3.86813268934316    3.75502879489296
H         1.09512001470825   -3.26809068626959    4.15078910713726
H         3.90952647423072   -1.78951644116389    5.30940650750683
H         4.94736201228261   -2.17981001649039    2.99225995668859
H         5.74356816328241   -0.86780910998204    3.82274312451343
H         3.04553743951110    1.74066744956335    1.76343161491467
H         0.65147439001104    0.36916698306097    2.75604390398738
H         0.83730819096095    0.75440664315315    1.23609369200868
