32
 energy: -49.314408371798 gnorm: 0.148847635628 xtb: 6.4.1 (79825abcba525fcdf90b791dcacef51065a7a4e7)
C         3.74467042654382   -1.23457299914756   -0.40057584518671
C         2.76777981510240   -0.30708003217850    0.31199950027341
C         2.99939824971606   -0.34719877925921    1.84689201393172
C         2.19206554375977   -1.57466083603632    2.36759868463104
N         2.25496650863189   -1.67061306221163    3.84373835937030
C         1.70487506789330   -2.92264258579093    4.34350116449068
C         3.59037844991842   -1.25294969388996    4.36345219469632
C         4.69809935284987   -1.42982775620120    3.28796365971740
O         4.40055452485578   -0.47227512746606    2.23186814115357
C         3.48694539920406    0.19650183599379    4.71045095604541
C         2.93359230228376    1.10240736651228    3.85441947504380
O         3.05891758390601    2.32626495504884    4.42472388477087
N         3.59253560879666    2.14248996626434    5.71248060145435
N         3.87532776027071    0.84513641488380    5.84249140622016
C         2.38096919497369    0.99543435389721    2.48256169256951
N         0.91719187217073    1.17066230297352    2.54552150098980
H         3.88823824626602   -0.85788921527637   -1.41938810098379
H         3.43256715208097   -2.27894928645619   -0.32534146237673
H         4.74686357832748   -1.15994293795647    0.03165947220325
H         1.72304674006018   -0.36571994628466   -0.01307436173960
H         3.09340360711763    0.67567968326702   -0.05099297822770
H         2.53189553646582   -2.56136486575030    2.02554114128932
H         1.16734412180230   -1.54612635304945    1.98009938234505
H         0.64695664946118   -3.04182783162249    4.08084520077792
H         1.87939403626315   -2.84763970884886    5.42133983589131
H         2.13575424803022   -3.83045434224371    3.90890184933067
H         3.93505521613242   -1.92397676445439    5.15917407609357
H         4.85083313451876   -2.43631948679632    2.88260708482943
H         5.69364308138161   -1.16742929391316    3.66354199180033
H         2.79693567614954    1.78192428598417    1.84675395988298
H         0.55028527021495    0.31037653671383    2.96855598196821
H         0.49295977876635    1.37756132957985    1.64512784312359
