32
 energy: -49.320508221528 gnorm: 0.143611098829 xtb: 6.4.1 (79825abcba525fcdf90b791dcacef51065a7a4e7)
C         3.55277030913928   -1.32188565361851   -0.40752049914339
C         2.93917253736170   -0.13720882119892    0.32893090457254
C         2.98754893561302   -0.32012292238852    1.87014918944798
C         2.24279767064106   -1.59676355663129    2.36524400875915
N         2.22725413349229   -1.68036099931290    3.84339203007072
C         1.87960657047327   -3.01419475311261    4.31240171382086
C         3.56004688045142   -1.28782849899114    4.38878359829854
C         4.69589423919592   -1.26891580953172    3.32835908840037
O         4.40131043639939   -0.36442287671499    2.22568478153743
C         3.38383157683274    0.16520053722719    4.68823489038069
C         2.91538506833253    1.11259748430666    3.82646272099672
O         3.01258580317442    2.32161348812450    4.43277391186458
N         3.68400506479028    2.12076513187677    5.65166476706710
N         3.84628376694278    0.80455787998471    5.79748843575163
C         2.31956157084787    1.01426001833896    2.47215352359282
N         0.85259898331793    1.16979906955741    2.43837209541041
H         3.50098557000604   -1.22680517047402   -1.49782268014836
H         3.01840488010775   -2.23278409519549   -0.12732750625670
H         4.58690538065236   -1.53783377839821   -0.12340927142773
H         1.88266034146835   -0.02118215232425    0.06266289766037
H         3.50066733553020    0.75809870511925    0.03438196974656
H         2.72193080830692   -2.44281215205978    1.85465038895308
H         1.19461209589012   -1.62888248945114    2.04696850632790
H         1.03995777024176   -3.47540065900230    3.77886290020831
H         1.56107577812885   -2.93831956665882    5.35671947917281
H         2.80919493872576   -3.59229737986091    4.29455679748677
H         3.82922089549852   -1.98995709471021    5.18678955187080
H         4.84772245204224   -2.29377072719269    2.97158498045267
H         5.64983391298171   -0.93912670516847    3.75527547566873
H         2.80360091295020    1.87140606381630    1.99586308774109
H         0.48583899283091    0.68943894771713    3.26807775915046
H         0.48602488417314    0.61116255811189    1.67218837362362
