32
 energy: -49.313098545368 gnorm: 0.142755114002 xtb: 6.4.1 (79825abcba525fcdf90b791dcacef51065a7a4e7)
C         3.72937182511884   -1.19732558608200   -0.46553216490857
C         2.83921481652481   -0.21224517199773    0.28250471137069
C         3.01383729774389   -0.33885029619113    1.82023998349567
C         2.26048499612501   -1.60537047558516    2.32814901797995
N         2.28785728657962   -1.60930467564869    3.80848242298083
C         1.64304453430215   -2.82423225711685    4.28608987320178
C         3.62236164326321   -1.22169225806032    4.35320709077390
C         4.70577376152358   -1.34787576644937    3.24627305885229
O         4.43628754338461   -0.47512055400562    2.11205384580051
C         3.53199389969902    0.22556880592528    4.71276984368762
C         2.88590283249191    1.15292346302025    3.94972721462073
O         2.89714999296439    2.35947514493181    4.56850622800800
N         3.68618070513240    2.16305472891630    5.71554082156640
N         4.01038649957222    0.87239518504570    5.81087704405979
C         2.33501144861348    0.89594128736139    2.59720803710918
N         0.86006607612499    0.87042687757403    2.56259625486168
H         3.51442958110577   -1.37944244004812   -1.52435891431138
H         3.74453543102761   -2.18015559087507    0.01154827016969
H         4.76703290985788   -0.86646706879020   -0.36267185119483
H         1.76271619672200   -0.38535667912255    0.17405201273998
H         3.07887684956928    0.80830074353524   -0.04100601917139
H         2.83432931322480   -2.49008755111830    2.02147160889662
H         1.24257286533045   -1.67523372235423    1.92815159177991
H         0.69006611968345   -2.86252897891401    3.74502595379601
H         1.39953861386247   -2.62368942351787    5.33409080025995
H         2.25453493530948   -3.71827624218507    4.12665191540278
H         3.86898580259589   -1.87190871021164    5.20093806818771
H         4.60747163247794   -2.41585420215674    3.02171587952019
H         5.75965973154482   -1.14071079273214    3.46404906442030
H         2.60247824907938    1.70597554945739    1.91299169376063
H         0.45033719650769    0.38058971296520    3.36624544330865
H         0.57089380489652    0.48537354006945    1.66727388704784
