32
 energy: -49.319784000941 gnorm: 0.140214479285 xtb: 6.4.1 (79825abcba525fcdf90b791dcacef51065a7a4e7)
C         3.87289372080923   -1.05621073852541   -0.50776297830455
C         2.73106852291555   -0.38757674381335    0.24820387357279
C         2.89218094768029   -0.41698199620615    1.79233137322388
C         2.14118310658922   -1.64098306790927    2.39847346702230
N         2.20170405386484   -1.62470141079623    3.87773808886198
C         1.75988795550224   -2.90728214163245    4.40662994391831
C         3.57257014555085   -1.25294402772104    4.33642406796544
C         4.67097261246507   -1.33909722826625    3.24047850142647
O         4.31861902645538   -0.57343621560774    2.05288098333115
C         3.49861275451996    0.18842744284966    4.72242259734967
C         3.04253203672854    1.12470550214904    3.84206577148345
O         3.13238378575850    2.32927599928536    4.45827799756590
N         3.54975743994137    2.11085028302600    5.78301504346808
N         3.72483024221585    0.79530776706128    5.91975512293955
C         2.45364353704262    0.96479373989686    2.49059700062654
N         0.99759078744529    1.15593245680810    2.63443440951682
H         3.66612620423449   -1.14111712642967   -1.58038541923612
H         3.99711030996381   -2.03998883415358   -0.04891508178715
H         4.78234553918178   -0.44835870906888   -0.52195548045370
H         1.81914443634314   -0.93084667233866   -0.02351491162508
H         2.51684965329558    0.60857072261666   -0.15850430287815
H         2.72799689558193   -2.47744167544813    1.99590768585749
H         1.10947613300698   -1.66840224976473    2.02989128428665
H         0.66999509232898   -2.94643485463084    4.29267700042836
H         1.84975430783794   -2.78124574349718    5.49007692947929
H         2.20781826220124   -3.79109666936868    3.94091979789565
H         3.99164142869128   -1.87570561969546    5.13567369995771
H         4.89058837204766   -2.33747075024136    2.84590734687138
H         5.61020060926006   -0.94100841372149    3.64097247180572
H         2.77958414139910    1.79450398006886    1.85720168168703
H         0.62454887810849    0.56122570000554    3.38332280606940
H         0.52695574064771    0.95693373893983    1.75557663952175
