32
 energy: -49.311636709786 gnorm: 0.140437810147 xtb: 6.4.1 (79825abcba525fcdf90b791dcacef51065a7a4e7)
C         3.32808108607011   -1.45802000542438   -0.61798613137989
C         2.98442838822913   -0.26618749013387    0.26731615765978
C         3.00906320735368   -0.36537757483869    1.81673735387485
C         2.34233180849618   -1.66401680221656    2.36317123902443
N         2.35493421931076   -1.64592688410029    3.84359875314676
C         1.89353011272123   -2.96459755898347    4.25366616864871
C         3.65413180103923   -1.15688828323815    4.39204847757863
C         4.72362598534408   -1.31598917482310    3.27586026802193
O         4.42550052318326   -0.43161714980639    2.15792242242244
C         3.48054904836476    0.26440434824008    4.81844329565979
C         2.97666072702356    1.16463127599944    3.92662359081063
O         2.90888356510817    2.37533240819546    4.53357493832457
N         3.37483369062323    2.18666598914399    5.84663786961515
N         3.74696131838680    0.91296895498003    5.98526448873194
C         2.46876573538778    0.96207255258844    2.54827607178511
N         1.00778888741416    1.16606899003648    2.51299301934493
H         3.13161847567366   -1.19340432319571   -1.66290803403893
H         2.67853454531842   -2.31694555676948   -0.43325205970326
H         4.41320261892432   -1.59582884986399   -0.60043319797817
H         1.98530190418511    0.04318226439197   -0.05920408837336
H         3.58170546279491    0.60624178643420   -0.02549486067107
H         2.76466834480033   -2.58059713406698    1.93006043945585
H         1.29940669917619   -1.83002817401057    2.07030378202912
H         0.98491560843232   -3.21710545036235    3.69416272160087
H         1.61917868010023   -2.91053419423699    5.31179042715895
H         2.61536056612685   -3.74940757414182    4.00529214562683
H         3.83480195119615   -1.72675320125090    5.31121385299378
H         4.85370972522381   -2.36788718328899    2.99791069858290
H         5.63872319457338   -1.06039250423801    3.82201665002598
H         2.95058594747260    1.79923465008635    2.03558230334383
H         0.50757993188919    0.58093805050805    3.19202394857665
H         0.66258425248684    0.90193132606190    1.59399689971297
