32
 energy: -49.315233999776 gnorm: 0.142739888141 xtb: 6.4.1 (79825abcba525fcdf90b791dcacef51065a7a4e7)
C         4.12033010377944   -0.39969439577709   -0.43027040461870
C         2.83378255773439   -0.53004493649346    0.37603365579159
C         2.97121602832078   -0.56476807989647    1.92233827946538
C         2.13096081797840   -1.76778094465367    2.44799582763064
N         2.13337138415585   -1.76500137828703    3.92858292916108
C         1.79600766017285   -3.01771585213826    4.58951677968463
C         3.41656906569621   -1.27212147935414    4.51025580479467
C         4.58415700301295   -1.51595863239038    3.51411881770438
O         4.36938475153624   -0.75518646493030    2.29105859955686
C         3.37254689086202    0.21447394756333    4.65207389785827
C         2.89113595398847    1.12596569298949    3.75928014513080
O         3.08210115782195    2.38168108206697    4.23414021319088
N         3.50941548144708    2.19577099247178    5.56066903400814
N         3.74854086749059    0.89948551952645    5.76673570534534
C         2.40037665509563    0.86703197037940    2.38416635869542
N         0.97471781844779    1.18652187281508    2.17743976273427
H         3.83555048194193   -0.29652111910755   -1.48323604810511
H         4.75932440466472   -1.28595593850790   -0.42611646037988
H         4.69722155356805    0.48826005493748   -0.15545905800857
H         2.43865156996455   -1.51738866276507    0.11221036314758
H         2.16903041377441    0.26635525396267    0.01901492698857
H         2.55841857696623   -2.70525475779381    2.06787039435688
H         1.10077543967572   -1.70592076155829    2.07932887459216
H         0.84329162369449   -3.31050777319494    4.13236285920318
H         1.56289913995836   -2.75405086482322    5.62583704742168
H         2.64378509355865   -3.70693206515762    4.51944498934506
H         3.62049461761563   -1.71538709742987    5.49218384993782
H         4.60164185774349   -2.55130271072793    3.15575574495900
H         5.58354413609937   -1.25299298258131    3.87893901628464
H         2.89934023726377    1.60071802267517    1.74495893803296
H         0.31862210433165    0.47370971958384    2.51671467756694
H         0.86892831196368    1.16741850453376    1.16653301109748
