32
 energy: -49.310193101860 gnorm: 0.149614397381 xtb: 6.4.1 (79825abcba525fcdf90b791dcacef51065a7a4e7)
C         3.35943057627421   -1.33891218949335   -0.56167901782043
C         2.97210440188038   -0.16269866354281    0.32647764876167
C         3.16969002661911   -0.38699235387325    1.85022431342206
C         2.47729451103607   -1.68158788589970    2.37386110118895
N         2.44987548712474   -1.68253926232523    3.85419855900338
C         2.00574214424599   -2.94640403150393    4.42457808376387
C         3.67593503127647   -1.11599462744914    4.48955309535967
C         4.83532111533007   -1.22523284784410    3.46052542314763
O         4.56364814683798   -0.42007159089701    2.27786450420130
C         3.31859658329907    0.31092393644443    4.75075973280667
C         2.81513756847229    1.18180466453771    3.83002625799225
O         2.77989229576471    2.41735308053567    4.38766306063873
N         3.11696527051630    2.24534552536154    5.74178048995152
N         3.46929727096232    0.97251185060134    5.93087582245844
C         2.37603775694137    0.87948801000534    2.44632641333559
N         0.91082077716373    0.81246787269856    2.28520438197550
H         2.84229235743454   -2.30180125392442   -0.48490979965538
H         4.43488551235745   -1.51423366783084   -0.48136989639210
H         3.18741078310402   -0.96995808349576   -1.57709528135235
H         1.96086610930276    0.16816784816065    0.06474625711383
H         3.72923944438315    0.60645855159095    0.12961536478907
H         3.06880573499550   -2.53515672601627    2.01663940570970
H         1.49408571602382   -1.93955446981446    1.96425443573552
H         1.33369842195188   -2.87336777210917    5.28794799152541
H         2.87352306518219   -3.58004274625661    4.63260874053267
H         1.42561083861383   -3.44979638252808    3.64438616552642
H         4.02864642352275   -1.68036662547488    5.36094946533781
H         4.78501669987002   -2.26087461215058    3.10614882444397
H         5.79582617748668   -0.87328600156023    3.85369560585563
H         2.72263559646764    1.65806387290417    1.76109976561712
H         0.56137904698253    0.13076648646107    2.96846415735960
H         0.69093808837772    0.59186117016299    1.31748897895476
