32
 energy: -49.310889552031 gnorm: 0.150931051604 xtb: 6.4.1 (79825abcba525fcdf90b791dcacef51065a7a4e7)
C         3.85365950570094   -1.36871204873780   -0.44763245833772
C         3.13475596965108   -0.21873276759398    0.24738368296344
C         3.00164967285609   -0.33286616798152    1.79024073875363
C         2.31461544388481   -1.64645708889385    2.27195379703188
N         2.35914093767513   -1.68540852984519    3.75136311967552
C         1.73731417381549   -2.73466917575789    4.54655173785690
C         3.63913159792204   -1.16517336552138    4.31603070287662
C         4.79382535592956   -1.26680223831252    3.28096504123647
O         4.40757117805070   -0.40676269505708    2.17104729908864
C         3.44036046865297    0.25543754382473    4.73360817746127
C         2.72820249837301    1.07301186105231    3.90653041266609
O         2.70226830001727    2.28384081561085    4.51644974421080
N         3.25233118695235    2.14348944229668    5.80275107494761
N         3.66271287988249    0.87968649089661    5.92270695694639
C         2.34187407118859    0.96302220617876    2.47912651044394
N         0.86874011249895    0.89601141832705    2.42717737713241
H         3.38018673814271   -2.35678441682951   -0.45179570189313
H         4.85549949011538   -1.55486331171981   -0.05335483449523
H         3.90553697992466   -1.13269806576457   -1.51458805904107
H         2.13494039734663   -0.17923178572760   -0.19914441995259
H         3.59874684757042    0.72454191543884   -0.06655321763451
H         2.82311600486776   -2.49179803196968    1.78935822034895
H         1.28901537834760   -1.59256693443174    1.88950867902688
H         1.04425415383311   -2.30755419550070    5.28114363572517
H         2.48078037636931   -3.43484981005719    4.94002801693584
H         1.17848787324914   -3.39488650693257    3.87537228528310
H         3.93824376057581   -1.77632579296888    5.17584308804880
H         4.91686642293151   -2.34269623523951    3.11369230258914
H         5.72644244394508   -0.82284667387117    3.64722747976651
H         2.76717202701620    1.82078907050746    1.95072926445938
H         0.66853927401226    0.12524665834378    3.07487448102302
H         0.53534673394725    0.64230399261545    1.50091056157572
