32
 energy: -49.319785389982 gnorm: 0.152496078234 xtb: 6.4.1 (79825abcba525fcdf90b791dcacef51065a7a4e7)
C         3.40396537726527   -1.50744279187638   -0.45504465358782
C         3.15303814474332   -0.24954343176996    0.36778388792045
C         3.14582614916596   -0.34560469424931    1.91758124784995
C         2.40717312231426   -1.65127980172235    2.34088828373732
N         2.33954893371426   -1.72930803122247    3.81787516972932
C         2.09456118446195   -3.11381233447300    4.19612141609706
C         3.52680778114485   -1.11903181390335    4.48559485806439
C         4.69205404050775   -1.19407365015502    3.46013060784244
O         4.54395525205329   -0.28907951312520    2.32883485870903
C         3.31150550012263    0.34760400755345    4.67171464605983
C         2.77605162966229    1.27231150798762    3.82444870704240
O         2.77920939971495    2.49439790993171    4.41205042964337
N         3.26148290370839    2.29611380168526    5.71778182734524
N         3.58309989002003    1.00630797070091    5.83164086929905
C         2.34793049824770    0.94963213847119    2.44190770606895
N         0.87707140209761    0.83423308475161    2.46576994490001
H         2.61218322889729   -2.26448870877413   -0.47609958508283
H         4.34459547392391   -1.93815532295625   -0.10363003897548
H         3.66574859877813   -1.21698505846606   -1.47675497345943
H         2.23302279043065    0.14256976576752   -0.07987428669940
H         3.90597831555612    0.49445988427420    0.07942436533333
H         2.79881295398672   -2.53662961359613    1.82238410821872
H         1.41079544469098   -1.62643930557333    1.88521472502377
H         2.06990776823841   -3.19755496384939    5.28917404108625
H         2.88403511534194   -3.77655282743333    3.82825669424557
H         1.13551727722424   -3.40518228551314    3.75567396658718
H         3.85782444866424   -1.56595790420004    5.43054869571952
H         4.79277066277668   -2.23808967653252    3.14302830476276
H         5.66665520862317   -0.88444543177130    3.85421471974631
H         2.55999490105697    1.85020456203435    1.85894630206683
H         0.57042013234626    0.21028524466612    3.22096814186868
H         0.54757297693673    0.46640362771085    1.57716367859899
