32
 energy: -49.312596967046 gnorm: 0.153574331163 xtb: 6.4.1 (79825abcba525fcdf90b791dcacef51065a7a4e7)
C         3.37718375110814   -1.67331270742701   -0.35090773396141
C         2.97495291296353   -0.34849252923654    0.28578993776785
C         2.97599140956417   -0.28139606739217    1.83712761805760
C         2.13490529011640   -1.41290844722758    2.50183693769660
N         2.29699128517403   -1.74648957140010    3.93522573711966
C         2.15285501043756   -3.19376101701442    4.00283847605548
C         3.58900947663891   -1.21274752986455    4.45836877817850
C         4.64653221691989   -1.33093904840077    3.32581261913590
O         4.37567340591801   -0.41899387721451    2.22319336952291
C         3.35859654312912    0.23664573097557    4.73798516812288
C         3.09461379081390    1.18743693602876    3.79672880035511
O         2.98691466046235    2.35028600032378    4.48590503872936
N         3.28606151675205    2.09743435205034    5.83624425723192
N         3.55374236606504    0.79658954411345    5.96332768796852
C         2.52645896898608    1.14632300836012    2.42766378224956
N         1.10004170108108    1.52371265159590    2.41270914166110
H         3.60495429509283   -1.64970894283091   -1.42237599792129
H         2.55276198682008   -2.38629348257236   -0.27489680294865
H         4.27805552171848   -2.00652189018044    0.17272364389222
H         1.93732310102509   -0.14908547509529   -0.00427911050936
H         3.61347764734506    0.45831133935613   -0.09495239552124
H         2.46307994603030   -2.26649828538752    1.89375929784000
H         1.08411686173917   -1.14626643359089    2.34130771312155
H         1.10316222322108   -3.50268959959092    4.07420263079518
H         2.74831997161937   -3.60628897622763    4.82324122156640
H         2.52768529173466   -3.68022226470076    3.09646474871187
H         3.82750602490780   -1.75716151621173    5.37977288255366
H         4.81614616026233   -2.35720003503168    2.98130331439831
H         5.53136969241459   -0.88075137971266    3.78993874773557
H         3.01815086750364    1.92910827166710    1.84342727319940
H         0.61945600211616    1.08648149985224    3.20740186661800
H         0.64108631778245    1.41666293584968    1.51193773558441
