32
 energy: -49.314927564195 gnorm: 0.149847745404 xtb: 6.4.1 (79825abcba525fcdf90b791dcacef51065a7a4e7)
C         3.50199178573011   -1.45044654284884   -0.40277987163557
C         2.73848051273912   -0.33802865263048    0.30566847677782
C         3.02495640749452   -0.29714530137562    1.83125418439148
C         2.12708652033691   -1.39832103196289    2.47221152647074
N         2.24785889053709   -1.73759635485339    3.90833756155733
C         1.99730262783042   -3.15818060484998    4.10608318881120
C         3.54264796477368   -1.24757116441349    4.46625044486761
C         4.65290178410523   -1.31078456715058    3.38073325844296
O         4.42357403496574   -0.52139683656442    2.17862948001226
C         3.36766468014984    0.20747236414219    4.75650112932118
C         2.94343340852660    1.16830386761180    3.88673965620794
O         2.99028897368962    2.36104671510755    4.53012911296052
N         3.55520594403636    2.12818996635918    5.79641713508711
N         3.77918431852501    0.81719627444137    5.90191441888241
C         2.51018961092076    1.08669074467527    2.47094715906943
N         1.07612499331203    1.34954515987537    2.24361691220099
H         3.64189837000222   -1.25592820056619   -1.47192418611095
H         3.17436897342774   -2.48766132574784   -0.29963298739992
H         4.54382620410132   -1.39805797900615   -0.07319738995409
H         1.65732127619598   -0.35084751498194    0.12816005949392
H         3.12126239951435    0.63810761494711   -0.01720466773755
H         2.37098717309944   -2.31069952639186    1.91172014275384
H         1.10083927182298   -1.07185794394692    2.26908013672425
H         0.97499706844465   -3.46010567539482    3.84895043324029
H         1.92322020517880   -3.23867029075724    5.19505137450299
H         2.70268872450695   -3.89064366302418    3.70039372652855
H         3.84996673376043   -1.80857770484274    5.35680058698089
H         4.96934759950683   -2.32544083717575    3.11427150449265
H         5.57340257715745   -0.95088056376825    3.85419577455900
H         3.02535289721062    1.87876239007867    1.92042441227877
H         0.51405027201275    0.77013341485958    2.87767074264954
H         0.81641454203566    1.09386966531688    1.29458090693563
