32
 energy: -49.307486256047 gnorm: 0.162775685114 xtb: 6.4.1 (79825abcba525fcdf90b791dcacef51065a7a4e7)
C         3.94860071329150   -1.31995960778515   -0.30975434115157
C         2.94416198575223   -0.39853612841379    0.37171738236403
C         3.06272490473580   -0.35441941138302    1.91934401907555
C         2.27587595812026   -1.61907807119890    2.37879135098690
N         2.31081400009876   -1.78873235569586    3.84921593561209
C         2.06703814005370   -3.13242554068579    4.35419449062919
C         3.54095561523097   -1.15351985202296    4.40700344047224
C         4.71386482651177   -1.19217511010020    3.38828032352148
O         4.49489208585322   -0.39006211946271    2.19268700010272
C         3.25735107520344    0.28287888014869    4.70422966746369
C         2.83481375251990    1.19569134899476    3.78342024854465
O         2.82996161895728    2.40242154696926    4.40193429087485
N         3.12176586546053    2.23089514764474    5.76658361475536
N         3.43068397136360    0.93836583830105    5.88464307791097
C         2.36580879431463    1.01813689853450    2.38794969734952
N         0.89509014562184    1.03538368486804    2.26961955232379
H         4.46776788087996   -1.95379045238280    0.41771024002974
H         4.74426613667282   -0.76976920296725   -0.81768893181151
H         3.50736871097040   -1.93753871455697   -1.09759854932257
H         1.94051258676200   -0.78064062107371    0.15431705421102
H         3.05518003376790    0.58757610752442   -0.09611667256095
H         2.67015337981231   -2.46259127912260    1.79646548359508
H         1.24914105430099   -1.40159769677273    2.06328913415511
H         1.19556128929912   -3.44103593161298    3.76455698579039
H         1.65429062036618   -2.84662075167018    5.32670341806054
H         2.94610686148378   -3.78235356113539    4.41324844744447
H         3.67310904911651   -1.60028111806559    5.39957211129636
H         4.90245772353003   -2.23265964260727    3.10106641995610
H         5.69409252143415   -0.87407858386853    3.76109075414218
H         2.74372846082559    1.74708944732755    1.66569565284798
H         0.54137245302203    0.28342730671756    2.87221031362333
H         0.66719436789978    0.90678432505886    1.28726801754874
