32
 energy: -49.316379557908 gnorm: 0.146366580202 xtb: 6.4.1 (79825abcba525fcdf90b791dcacef51065a7a4e7)
C         3.58703904863211   -1.32011840596204   -0.39936911668410
C         2.97935236243254   -0.13333531237745    0.33859082645351
C         3.07038577898957   -0.35932004128206    1.87214730575483
C         2.27121193626327   -1.62068155431388    2.31921882912655
N         2.29970669408036   -1.69893639927854    3.79746641666745
C         1.58265823998260   -2.86574261907940    4.29178022279920
C         3.61473091116697   -1.25442418538505    4.34609234828839
C         4.78484353435802   -1.27199053722759    3.32357832969168
O         4.48217201920626   -0.34965124155103    2.23801032768541
C         3.50820697038759    0.19898596831621    4.67513316296267
C         2.96694235174108    1.09599294374911    3.80216954584523
O         2.97371819447375    2.31360701235118    4.39895343271275
N         3.65961986868139    2.13927265057932    5.61385475741615
N         3.90507389676234    0.84222663770010    5.80730865633684
C         2.28298133277128    0.89467412869222    2.50197826668333
N         0.81547797056449    0.90069007585111    2.65596043694364
H         3.77967542904174   -1.08566356337795   -1.45217629593528
H         2.92486411121756   -2.18855069818235   -0.36560223134194
H         4.49652841654008   -1.58221073678398    0.14919704180636
H         2.02861212859658    0.31832912565509    0.03417154138670
H         3.67279499699857    0.69429550330669    0.14423136063653
H         2.66108110521900   -2.55424861657828    1.89198680426575
H         1.25978107215610   -1.54594054986776    1.90395348007797
H         0.54406879163644   -2.69980969800644    3.98164656836358
H         1.75988551646061   -2.94856243467543    5.36860419734208
H         1.87684086963340   -3.79931403170939    3.80131451120733
H         3.92303690692965   -1.89164043263584    5.18344268167394
H         5.00377318725768   -2.27055782017662    2.92911621710785
H         5.69118712343448   -0.85587602026007    3.77790130253845
H         2.58644446181012    1.72654355293567    1.86030125060960
H         0.43932179865276    0.33845931644777    3.42801828918670
H         0.34290457337685    0.68253033368428    1.78270816775049
