32
 energy: -49.319660923178 gnorm: 0.136487036251 xtb: 6.4.1 (79825abcba525fcdf90b791dcacef51065a7a4e7)
C         3.60617231525474   -1.28881900149172   -0.51993877528912
C         3.06917800317903   -0.09303306925064    0.25727110064111
C         2.99957872549802   -0.32683480620814    1.79077828952736
C         2.30393835854686   -1.63767632635186    2.26760486796509
N         2.27925096107516   -1.71055537343002    3.74619570134335
C         1.67442701506579   -2.81006250523438    4.48458138745835
C         3.57703131783461   -1.21125738953511    4.28872482894108
C         4.70328994506922   -1.30621677176389    3.22217373591160
O         4.40280606932629   -0.32558539000955    2.18832208660219
C         3.45771422164115    0.23015592330023    4.66303397824994
C         2.84338345710512    1.17195104250056    3.89149395217530
O         2.93312391845251    2.37231709098704    4.51587277098552
N         3.63056570976738    2.11769156726864    5.70984914858740
N         3.97249941552052    0.82956279557529    5.77154236630517
C         2.30354275464085    0.91926565215444    2.53371953539726
N         0.84905543105071    0.74644012628629    2.71235540976168
H         4.12989854896391   -1.00991590979139   -1.44102764038371
H         2.91763854425704   -2.05289593175598   -0.88858248014558
H         4.37639990654775   -1.83218650261122    0.03529931984483
H         2.08553733755378    0.14743086762924   -0.16130623474852
H         3.77894186909201    0.73816794975522    0.16266049203323
H         2.79361931942746   -2.55407360751782    1.91193480121486
H         1.26213468382127   -1.66111338917995    1.92831190087230
H         0.65083022574264   -2.93130163458645    4.11050206302256
H         1.61122525859803   -2.45164557159771    5.51674481413640
H         2.17719566851305   -3.78176414236080    4.44365194684483
H         3.88110191151655   -1.72729694771536    5.20714573486104
H         4.84200392713099   -2.27209268946591    2.72366666193468
H         5.65428442702542   -1.13578919849034    3.73945826522098
H         2.43907793896349    1.83233028601929    1.94738416173531
H         0.63726445874883    0.03578377117444    3.42213167817330
H         0.38374197682678    0.51273048311146    1.83922769482536
