32
 energy: -49.310383882370 gnorm: 0.148253898236 xtb: 6.4.1 (79825abcba525fcdf90b791dcacef51065a7a4e7)
C         3.75066222286832   -1.34151019244685   -0.40868879623509
C         2.85905968069340   -0.33721294429992    0.31155706649296
C         2.88970948638159   -0.35642502075191    1.86392406545876
C         2.04690101909198   -1.52604343372221    2.45658879887714
N         2.21353054252078   -1.72264918143397    3.91457803067141
C         1.98517974870841   -3.12336207529366    4.23984831957695
C         3.51556746395601   -1.19792220272826    4.42175830294812
C         4.57853158895959   -1.44199137531036    3.31471507840870
O         4.29411184913165   -0.52603680209475    2.21885449639663
C         3.43313376865715    0.27102499699923    4.68140304012102
C         2.92056216044086    1.22808385563517    3.85619798541891
O         3.08286716332794    2.40647589718512    4.50722056649262
N         3.64442519885213    2.16362051040803    5.77312446469602
N         3.89952764169191    0.85488193429045    5.81923926527374
C         2.41242504553528    1.05393863817369    2.47406204704885
N         0.96168446219994    1.32301411384461    2.45784034782746
H         4.19196446519399   -0.79467551918810   -1.24934626972134
H         3.16366722425672   -2.22702698852109   -0.66381108919084
H         4.68617989053364   -1.58010323202060    0.10577033598952
H         1.84476974716632   -0.43110374951519   -0.09214994029068
H         3.08275936891013    0.67545161921711   -0.04632562440353
H         2.30873407065510   -2.50213962998901    2.02676051118196
H         1.00149319346700   -1.47700719424688    2.13140899866667
H         0.95210100394969   -3.45086122761961    4.07288338434300
H         2.12103290540559   -3.17436789768750    5.32463440171277
H         2.55090400060858   -3.91619841992161    3.73982608026260
H         3.83175435304183   -1.77450914241910    5.29915569149113
H         4.65720037674386   -2.48112860704292    2.97608216342419
H         5.60368689654471   -1.16330404621566    3.58380496057470
H         2.85632264223039    1.83525619242144    1.85088958479120
H         0.54000576952627    0.41777382823927    2.69532162143873
H         0.54682845829089    1.59714506397882    1.57114109389936
