32
 energy: -49.316747070249 gnorm: 0.149820015482 xtb: 6.4.1 (79825abcba525fcdf90b791dcacef51065a7a4e7)
C         3.98016743596812   -1.45325904727350   -0.31637775371568
C         3.00184536492555   -0.45866690972064    0.29680614030263
C         3.06374913178235   -0.32884158465144    1.84291898631883
C         2.34965861929541   -1.60197958497148    2.38952578482670
N         2.28551544633504   -1.77857787825137    3.85814771992471
C         1.97158281364039   -3.12303197997563    4.32056619920567
C         3.54179169023434   -1.19480643926288    4.41389147384419
C         4.75028533754387   -1.12526972855867    3.43935835794952
O         4.44650118732739   -0.26722953022428    2.30258225307066
C         3.30805704236967    0.26681457011388    4.61649555465786
C         2.80970131155877    1.21137138509516    3.76849298875021
O         2.64659161263195    2.38357169810236    4.43040127514113
N         3.16950423159616    2.21062594935403    5.72403606244397
N         3.59307658992878    0.94603098693593    5.76127159398622
C         2.36039380249451    1.01961123030593    2.36842867336370
N         0.88655382328365    1.08242334459930    2.33432349098878
H         4.00316421018846   -2.40604397925185    0.22413387706472
H         5.00577373356035   -1.08416101976764   -0.24095320985928
H         3.70999939471415   -1.58372132692904   -1.36841242548203
H         1.98867298142803   -0.60133067224321   -0.09524949574004
H         3.27242353435304    0.51044829479771   -0.14047434391073
H         2.80644051271448   -2.50923704929623    1.97202509747305
H         1.30414466096282   -1.48572616109526    2.08226429085296
H         0.97355365677706   -3.42549614951716    3.98168880808799
H         1.77383247500510   -3.03829276366335    5.39366105573663
H         2.78136899577829   -3.83289375017409    4.12308652077985
H         3.71162191435653   -1.69694673267743    5.37371725940920
H         4.92419576468650   -2.13494822481198    3.05080762857876
H         5.67750861287626   -0.72180764957455    3.86184469053979
H         2.76115055601494    1.82646952293052    1.74857408460963
H         0.47010059708878    0.53084242110587    3.09326710938001
H         0.41958022060386    0.86697155519461    1.45739419438179
