32
 energy: -49.315575854995 gnorm: 0.148806998932 xtb: 6.4.1 (79825abcba525fcdf90b791dcacef51065a7a4e7)
C         3.62847620407486   -1.36370494336622   -0.57416266243943
C         2.90005943787164   -0.30880037390189    0.24979573680680
C         3.06924366295494   -0.34390558413266    1.79294056053984
C         2.28077963379268   -1.56099016892826    2.36444227937734
N         2.29849673043999   -1.62762798939629    3.84342747158437
C         1.55716703187947   -2.68804863482545    4.51116971795541
C         3.66152724297826   -1.24374831797784    4.31529020239409
C         4.78223930221909   -1.28492945370306    3.23950414899601
O         4.49644315095820   -0.47655955129619    2.06237358576631
C         3.55902772086734    0.19956120937835    4.68726835042288
C         2.99590958448198    1.11474899086639    3.84763529619240
O         2.91317146084366    2.24958597186225    4.58525332934473
N         3.41053835776151    2.00401876807938    5.87721374652089
N         3.80879745827181    0.73124961730610    5.91527721735177
C         2.45303165687862    0.97699286642576    2.47463271403056
N         0.98179722229606    1.01680685973486    2.58044811437817
H         3.66211411167406   -1.10136200586751   -1.63742437773473
H         3.27886051772727   -2.39698694248726   -0.51181145288900
H         4.65177415662606   -1.28685465689926   -0.19502751258500
H         1.84830168789717   -0.15623497989674   -0.01686563320374
H         3.26694563850729    0.68813009676520   -0.02431227647564
H         2.70261237632035   -2.44672370148136    1.87087781941610
H         1.23908967885471   -1.42017053524741    2.05448133216418
H         0.56598998517126   -2.84044423425029    4.06762907739519
H         1.50301215394551   -2.43037841707892    5.57347466872715
H         2.04532895091475   -3.64781325345836    4.31316609352911
H         3.87826543843541   -1.92605265434069    5.14579490768818
H         4.86925810201240   -2.31048111032416    2.86355375729803
H         5.69468457797673   -0.83881875931455    3.65114503815461
H         2.77767363077757    1.75170235818482    1.77443360907996
H         0.57096968764265    0.21390118670593    3.07058425732565
H         0.53421889691421    1.05621541816876    1.66852189822239
