32
 energy: -49.313584618838 gnorm: 0.146553705476 xtb: 6.4.1 (79825abcba525fcdf90b791dcacef51065a7a4e7)
C         3.59176800494021   -1.52435527224104   -0.45885981425478
C         3.20494062678181   -0.25182596307911    0.28501908696135
C         3.10436128476818   -0.32787500583410    1.83267924547349
C         2.38693512942844   -1.61983465701176    2.32838540410110
N         2.41194910358909   -1.75462463235892    3.80261661236865
C         1.90371375121700   -2.96027282629999    4.44140502281479
C         3.67578371392397   -1.16770868627430    4.33752030890198
C         4.87787019588476   -1.10758243605040    3.35447403853452
O         4.46326731995793   -0.15554244566584    2.33344415597868
C         3.42022414114524    0.27460749664911    4.63150945459773
C         2.71070461820974    1.13852585486536    3.85056035395924
O         2.55735407755698    2.33218200835916    4.47541996304343
N         3.21288695334715    2.19895249006289    5.71209508152618
N         3.72066922969203    0.96632125122708    5.76480028215692
C         2.30844727356414    0.93268470253667    2.43824036607738
N         0.83843695452237    0.80541098991014    2.45180122363291
H         2.73788165209046   -2.18931210739649   -0.28800517620813
H         4.57246313011609   -1.91856029695815   -0.18203864017210
H         3.72576650613950   -1.32648929582206   -1.52641851722735
H         2.27082898708553    0.14817986322635   -0.12487069753295
H         3.92093865569603    0.56526269955623    0.13229714840014
H         2.75577635099860   -2.56493295314230    1.90788809135329
H         1.35078855197010   -1.50922693899011    1.98898870187011
H         2.31585434570709   -3.04602229484549    5.45391270993736
H         2.07856741772394   -3.84018082084404    3.81450262577065
H         0.81240501900868   -2.91859219345917    4.51862932401299
H         3.89308271399404   -1.70248262493164    5.26974919745788
H         5.17575223984064   -2.08877780864021    2.96822399544768
H         5.66113555062517   -0.67567510665478    3.98769659159829
H         2.46438139410469    1.77807116016086    1.76233187746715
H         0.56563233642422    0.07774124268762    3.12243123084823
H         0.55653540593993    0.51616885169780    1.51887072092882
