32
 energy: -49.319726739171 gnorm: 0.139663183972 xtb: 6.4.1 (79825abcba525fcdf90b791dcacef51065a7a4e7)
C         3.34455029415241   -1.55825208451038   -0.46223709605759
C         2.89390414874479   -0.29388840466025    0.25930612346561
C         3.04164926353970   -0.30794754789308    1.80498569599249
C         2.30298414937796   -1.53781997727006    2.41438889817356
N         2.47302915691517   -1.69751800678788    3.87648770311655
C         1.74209689442105   -2.84916534363183    4.38578899281299
C         3.81743494079985   -1.23551248473649    4.33145384481866
C         4.82783139397045   -1.25734680117043    3.15093307216162
O         4.47060663064926   -0.31839474961813    2.09663842019376
C         3.53522695811036    0.17937995282232    4.71933825620890
C         2.93050760975379    1.07154887326354    3.88387222863258
O         2.77287473126455    2.20766802323942    4.60717444044793
N         3.19178102304064    1.97575987581746    5.92913318826631
N         3.64069814017439    0.71987762642005    5.96425646396995
C         2.54721467616781    1.08015052628932    2.45144707873134
N         1.08994584315569    1.31132415906826    2.43598362700057
H         3.37790905891346   -1.30407336301360   -1.52748879079236
H         2.77161254544745   -2.46961016752369   -0.27526310934875
H         4.35640783070098   -1.83152237572068   -0.14877928287959
H         1.92294633596340    0.02681424490004   -0.13435563944107
H         3.63717869418911    0.45472471341251   -0.04191206941720
H         2.64190620586569   -2.42828307063207    1.86823878748738
H         1.21788856316513   -1.42954414222237    2.30544934853902
H         0.65721147447492   -2.70192168221931    4.32473504764550
H         2.03120473631325   -2.97320498357839    5.43404913280995
H         1.93574050774960   -3.80715457104655    3.89241853992155
H         4.16255292207507   -1.66947889907873    5.27740281144993
H         4.84681414792556   -2.24059924568757    2.66769249997552
H         5.81587061116924   -0.97999867441472    3.53547939242946
H         3.04866396168233    1.83851639472747    1.84376639886972
H         0.61648765391349    0.52615023597100    2.89751312616064
H         0.78992777209379    1.40268548428651    1.46896186772768
