32
 energy: -49.311854343685 gnorm: 0.148909077754 xtb: 6.4.1 (79825abcba525fcdf90b791dcacef51065a7a4e7)
C         3.43431019826593   -1.44532726920902   -0.51655121460254
C         3.15141148193465   -0.16135506035698    0.25397183433569
C         3.09622106405761   -0.35317937604828    1.79387737694137
C         2.38663182938070   -1.63515674957973    2.32548037807739
N         2.34167658148418   -1.68005863651350    3.80470806178286
C         2.07962252439849   -3.03221618848198    4.27687224064283
C         3.56882547673580   -1.13647411046138    4.45777135623083
C         4.72676635511409   -1.10804428487141    3.42173482059970
O         4.49348241198836   -0.33251799362924    2.21139797742476
C         3.27922914602290    0.28936347608422    4.79709038882636
C         2.94369383454780    1.18970542703719    3.82938444509092
O         2.80641865036344    2.42646343221927    4.36824072681063
N         3.15747258838898    2.28427345329680    5.72226507879115
N         3.43279761762902    0.99863061576926    5.94880220081353
C         2.40395944719179    0.93102105599435    2.47269786798502
N         0.93180016628733    0.83905148222174    2.43267953216525
H         2.70839304615241   -2.23940630608894   -0.30927465173421
H         4.38136077143046   -1.89457890988019   -0.20823535487071
H         3.56858192594663   -1.32435015870940   -1.59549688884912
H         2.17493131515302    0.27246366119624    0.01134731436604
H         3.92924176519712    0.60747103514114    0.16738351670276
H         2.70190858028295   -2.56883940745707    1.84080534498327
H         1.31724291615049   -1.62018682552450    2.08630017044371
H         1.80297503569778   -2.99633191594237    5.33732645760250
H         2.92174253517512   -3.73124812277700    4.27427555247826
H         1.22068266832006   -3.49158704366969    3.77701590167306
H         3.79781950920757   -1.81390110911541    5.28897957634261
H         4.86830685733361   -2.16290052135956    3.16113593716328
H         5.62252334172121   -0.83549018189058    3.99125482383404
H         2.72104346788284    1.75015331356957    1.82129471578887
H         0.68329475768452    0.16180408239820    3.16292007407360
H         0.78442307052591    0.27572763391059    1.59935183220283
