32
 energy: -49.317339982385 gnorm: 0.143944244694 xtb: 6.4.1 (79825abcba525fcdf90b791dcacef51065a7a4e7)
C         4.03029940501582   -1.44083967045159   -0.32900003561531
C         2.91973065164388   -0.59272497729219    0.27899716332484
C         2.95321535676121   -0.40988529612398    1.82061969964117
C         2.10308812477142   -1.49864222714390    2.54275309026405
N         2.35482488447070   -1.79035771077839    3.97232727794169
C         2.23938592424600   -3.20141705742142    4.31221953081693
C         3.60682077107410   -1.13875581854411    4.45791092766922
C         4.71477085521840   -1.22421250677467    3.37156347429031
O         4.36145773140368   -0.43597140258216    2.19912008688268
C         3.28745721922628    0.30029034262815    4.70115839209843
C         2.85107656572932    1.19310228861309    3.76728842638826
O         2.61931788597825    2.37582288483430    4.38877120045718
N         2.85502374606774    2.15407891039740    5.75702233227664
N         3.33491437299734    0.91899058857383    5.91278584248702
C         2.55369505031424    1.06663517780625    2.32008436788143
N         1.15187267259694    1.51062106167140    2.19726998199340
H         4.04357005873751   -2.42160000274346    0.15927638516559
H         5.00661214966922   -0.95048956561320   -0.31632360555282
H         3.76366681534217   -1.60624439351244   -1.37701552556643
H         1.95331648286270   -1.06496953371622    0.07017286392466
H         3.06201821765592    0.43048303094567   -0.09034098772242
H         2.22649521688457   -2.42158550642762    1.96049969381254
H         1.02571895509475   -1.30392786056916    2.49390743098288
H         1.33339038913027   -3.50407694888526    3.77374600234421
H         1.96138758382513   -3.24804214262075    5.36974566563193
H         3.13353352441826   -3.76089678071648    4.01872655736076
H         3.82770328052201   -1.65305166164669    5.40075949181631
H         4.77150563843206   -2.24780880988800    2.98465400263882
H         5.70228655242319   -0.90752142983481    3.72587810482927
H         3.26678899744237    1.68680308397145    1.76987096786733
H         0.60274477665893    1.08868029731741    2.95496040034642
H         0.81824412808396    1.11444678822292    1.32249757752382
