32
 energy: -49.312882059406 gnorm: 0.138789023440 xtb: 6.4.1 (79825abcba525fcdf90b791dcacef51065a7a4e7)
C         4.11341973061379   -1.07099734435036   -0.39930776525446
C         2.96829488729629   -0.30115798345185    0.24749865445139
C         2.94468463295526   -0.38928245552880    1.79760454588840
C         2.16393922852917   -1.61839598546085    2.35375305859915
N         2.17679752872619   -1.70078215578637    3.83199487766764
C         1.83946613676232   -2.99395630822119    4.40979200656152
C         3.47652112783034   -1.18646723520826    4.35551081425061
C         4.61965951352799   -1.34204791173525    3.31434016782632
O         4.35727090887322   -0.62215800589487    2.07591841224514
C         3.34681657919451    0.25146021824230    4.73964313544656
C         2.93143826017950    1.15522531080436    3.80673162196995
O         2.93230379341312    2.38699527702399    4.37376155344007
N         3.43830485098533    2.22748925417741    5.67582129206842
N         3.67093113150547    0.92894712074039    5.87500409456080
C         2.39827688438388    0.98404887674245    2.43368141232597
N         0.92703677349942    1.02738917531323    2.53802213895663
H         3.77003688266756   -1.31694678934261   -1.41028644710986
H         4.32173453379470   -1.93386300272327    0.23776232085165
H         5.05017235667061   -0.50621263000563   -0.41665345328046
H         2.03045750042551   -0.77586171008532   -0.06184947989628
H         2.97248327419439    0.76704161794507   -0.00258756885525
H         2.53701200915583   -2.52637351654419    1.86134455626598
H         1.11371825812974   -1.59879475257031    2.04122206773200
H         1.38661238729920   -3.67475271150372    3.67915913250943
H         1.11815429415328   -2.83991726465802    5.21837082137250
H         2.64039701640972   -3.62450097625912    4.80926511238448
H         3.70655021078089   -1.82272120527452    5.21836666930079
H         4.75953042265850   -2.42815232550293    3.27586291012685
H         5.56395087557200   -0.90990945442635    3.66446804404651
H         2.77309474288408    1.83875118564431    1.86373269960693
H         0.54683213511822    0.50783645582956    3.33750924303510
H         0.53700436157665    0.55533554542404    1.72652419786804
