32
 energy: -49.311512928574 gnorm: 0.151776711764 xtb: 6.4.1 (79825abcba525fcdf90b791dcacef51065a7a4e7)
C         3.76552987713125   -1.36976218852775   -0.37556096017633
C         2.94236089671982   -0.29871488986496    0.32982730481217
C         2.94195522269196   -0.40154765971058    1.87920682621142
C         2.29827363382619   -1.70117219792005    2.45037641510782
N         2.38067918374679   -1.73937727384733    3.92817931132808
C         2.04358384122182   -3.08583519384722    4.36790557618518
C         3.65941970839223   -1.17548576894728    4.45231599810103
C         4.73922537548085   -1.22350783202244    3.33574954308353
O         4.35719595531729   -0.35769296585639    2.22886388992984
C         3.41632837529240    0.27686443051975    4.70450994560217
C         2.78032580180837    1.11614563413714    3.83804462006758
O         2.75982055025764    2.34484760874116    4.41132633944909
N         3.22915591777673    2.19839364959943    5.72856373413968
N         3.73767374214037    0.96925340418100    5.83163812364543
C         2.34028379024723    0.98627459693899    2.42796453983468
N         0.87988565210305    1.11225678996912    2.25861703015693
H         3.51693944587163   -2.41995403992469   -0.18640315632851
H         4.84082944862361   -1.23464019888740   -0.23676840251072
H         3.65902555723097   -1.20426512605755   -1.45169091581197
H         1.87159451916658   -0.35645511356549    0.10465116845800
H         3.25816913026138    0.73226785803673    0.12746430150704
H         2.96932584817769   -2.49732060403230    2.10122132505230
H         1.27874238017251   -1.73376533824084    2.04972990292257
H         1.53204755113837   -3.10758651907583    5.33756642568077
H         2.85618333558118   -3.81820807056148    4.40152896559733
H         1.24942003954716   -3.45778840864639    3.71245894737867
H         3.79905486715396   -1.65886619864898    5.42653266078195
H         4.85215837707004   -2.25240873772716    2.97619950026829
H         5.69245811299739   -0.89467132086232    3.76497355551717
H         2.82169432248176    1.85115388310880    1.96312723362203
H         0.33313399535318    0.24956063041454    2.36102885594214
H         0.56236919985059    1.51987277425577    1.38310499494832
