32
 energy: -49.307521985000 gnorm: 0.159192969944 xtb: 6.4.1 (79825abcba525fcdf90b791dcacef51065a7a4e7)
C         3.54313646876084   -1.49421511804543   -0.45467606875866
C         3.14349110068259   -0.23181997784996    0.29962106730587
C         3.10945364055596   -0.27610868245594    1.85140442448557
C         2.44391031263035   -1.61288738337239    2.29823707993066
N         2.29751526847424   -1.64280944584561    3.77126962235295
C         1.83361396159799   -2.96521974602712    4.16619742199498
C         3.54403916384696   -1.14221732243851    4.42200454115856
C         4.77018537015169   -1.15249030776529    3.46729673817704
O         4.49605508868917   -0.32472812451537    2.30091770039190
C         3.22949747229906    0.27972654493610    4.75540438383098
C         2.79142383849666    1.22016473071093    3.87034964407321
O         2.96676385472318    2.45704580941162    4.39776030449860
N         3.36288495891440    2.23300578934983    5.72807340422464
N         3.61216488066195    0.93203923281336    5.88727764637619
C         2.30692437110631    0.96233324642639    2.49281108588054
N         0.84690415236843    0.74867639873688    2.49494005758983
H         2.99416403520065   -2.36702871638047   -0.08412716406435
H         4.53224491399136   -1.78885580232798   -0.09600930944606
H         3.60080810840751   -1.48540068328168   -1.54709742124204
H         2.06945658452597   -0.10204269889504    0.12587822593009
H         3.71460840596352    0.61066203304869   -0.10984215144922
H         3.11031307889149   -2.39986604632989    1.92055391501300
H         1.43348328831087   -1.58808220137049    1.87462657974211
H         1.36480209250205   -2.86434550352112    5.15231327719293
H         2.77253195481253   -3.52711493091703    4.18911704668793
H         1.08253852392648   -3.40378678257332    3.50121602250648
H         3.64928942190035   -1.69756023528704    5.36156260615298
H         4.94416593020047   -2.17411256853332    3.11136712280340
H         5.68196451432284   -0.75642491409860    3.92861045814947
H         2.46871119312226    1.87847483648174    1.91804538822606
H         0.75314393448119   -0.11309554103358    3.04469307025311
H         0.55108145510303    0.46571101182333    1.56439809686818
