32
 energy: -49.319496345899 gnorm: 0.143033840511 xtb: 6.4.1 (79825abcba525fcdf90b791dcacef51065a7a4e7)
C         3.50732881405633   -1.63802809230119   -0.42198349352131
C         3.07222169957148   -0.35376851760433    0.27348845508930
C         3.10390920214590   -0.33419260938108    1.82583001672065
C         2.26913447805809   -1.51577627435978    2.40599881992769
N         2.35427145205226   -1.66862070541049    3.87621716431807
C         2.20148987082661   -3.06060998286538    4.27492136200948
C         3.62455548117428   -1.16369529411432    4.47563275581711
C         4.76628255720668   -1.28684307149581    3.42858884202959
O         4.48699605684170   -0.44177051897654    2.27592708012645
C         3.28924850816891    0.27043510307839    4.72634281694084
C         2.79028522686233    1.17417834697544    3.83531073350459
O         2.64089975533434    2.33742872827930    4.51598207113168
N         3.07941345551482    2.13917315821492    5.83705711305852
N         3.47521582627981    0.86882577690036    5.93482452223779
C         2.49782696333912    1.04664981421979    2.38719681209282
N         1.05501018053241    1.27319117511931    2.17678873141520
H         2.74782805010405   -2.38152216484729   -0.15579566968130
H         4.50802534114950   -2.03837770490593   -0.24277093450975
H         3.39711713258418   -1.30674610800208   -1.45875432795731
H         2.04893642427699   -0.15868392074886   -0.06622922715877
H         3.67583549456986    0.51520598694151   -0.01658868377030
H         2.65363388519698   -2.40914576858062    1.89597549889228
H         1.25905788629650   -1.30278064468262    2.03802862462658
H         2.37297424567643   -3.15504328499333    5.35383754174808
H         2.88603504092349   -3.68551847248176    3.69293700226530
H         1.19217593503500   -3.39017876118937    4.00785316422275
H         3.87402830170159   -1.64028839166820    5.43107770844791
H         4.94984928598505   -2.32482753108479    3.12932526696478
H         5.65610987657232   -0.92123037488388    3.95352127051901
H         3.01954454612929    1.85699959631226    1.87048606841071
H         0.45536181536381    0.84571612655470    2.89188113187571
H         0.69023914159438    1.28173638177010    1.22791683327641
