32
 energy: -49.312198149732 gnorm: 0.157118055883 xtb: 6.4.1 (79825abcba525fcdf90b791dcacef51065a7a4e7)
C         3.86246121084355   -1.25164424982109   -0.30751242113490
C         2.87350119348541   -0.28279247785057    0.32935995442192
C         2.93664335076116   -0.29028066698206    1.88084590137859
C         2.16773449738047   -1.56691320408331    2.33754402754837
N         2.22163932520043   -1.75044610583206    3.80572713591988
C         1.69615920449268   -3.04661683495696    4.21039176042998
C         3.53144259163898   -1.28238743856777    4.34721277161507
C         4.64844605150667   -1.32506033352947    3.26763445852160
O         4.34855653723103   -0.33385734572543    2.24373962687374
C         3.39424789924995    0.17100053982804    4.66479311866573
C         2.90840764089690    1.13489854925805    3.83141790012722
O         3.09347959446493    2.36285567584829    4.37607431981828
N         3.84357791308482    2.17159926479877    5.54979162085884
N         3.88317781294653    0.85132915164780    5.73772544667552
C         2.30321686598666    1.06227575517907    2.47964152262256
N         0.85653552831439    1.04708536164709    2.76980561620948
H         3.75635569352176   -1.16008333668193   -1.39417659342350
H         3.76593952390239   -2.26850417377632    0.08039214745273
H         4.85348520327976   -0.88348081200635   -0.02623807126081
H         1.88826258567446   -0.59894418235266   -0.03110064637922
H         2.98089349529741    0.72242473826691   -0.09680467301784
H         2.55900405262143   -2.45524907054207    1.82389029767395
H         1.11768894452297   -1.42985608961463    2.05533203994820
H         0.62097675662228   -2.88674035240279    4.06614588193880
H         1.83680325228313   -3.16774144046691    5.28898648614505
H         2.04944461030851   -3.98047539590018    3.76122227946886
H         3.85828331215290   -1.88932220362976    5.19988976180874
H         4.89517541950027   -2.26751794219491    2.76607146217577
H         5.52390940142871   -0.86135428790273    3.73620674110431
H         2.63784559924550    1.89162366228347    1.85031516792031
H         0.78197487376819    0.40355347317210    3.56603275006804
H         0.46143105000786    0.55675395812776    1.97171013949783
