32
 energy: -49.316182272915 gnorm: 0.147666709456 xtb: 6.4.1 (79825abcba525fcdf90b791dcacef51065a7a4e7)
C         3.36151026195459   -1.44709125038764   -0.39240907527955
C         2.91109453171500   -0.19678103287838    0.35336040948899
C         2.94039879584144   -0.34698659318777    1.89858893686998
C         2.14671730086056   -1.58127391033898    2.42412593684614
N         2.31469950043394   -1.72279684172938    3.88833389503110
C         2.06508438550843   -3.12108790126354    4.20835857830535
C         3.61098281834681   -1.18177315140569    4.39312409796596
C         4.68216861566716   -1.30856400400579    3.27442301657634
O         4.36890374078596   -0.38884033743067    2.18964137607201
C         3.42415978774658    0.25283981245935    4.76594991073383
C         2.93032910830750    1.18345807546189    3.90007734880469
O         3.04687482207024    2.38493903619129    4.51784877879693
N         3.46937571051942    2.15712677954450    5.83937569082984
N         3.60297746881375    0.83737915256346    5.98226453378617
C         2.48462929309207    1.07851601049904    2.48969862726663
N         1.02929969438846    1.24886986477509    2.31560626344409
H         3.04956153351988   -1.37426361687502   -1.44019957483485
H         2.96007100659382   -2.40286613117929   -0.04725491201801
H         4.43551252254485   -1.65517711468164   -0.39515604269479
H         1.94045662070946    0.13244692379760   -0.03400228423581
H         3.65372111254544    0.54764547398922    0.04039716881729
H         2.59213115707408   -2.42004838421513    1.87264020310569
H         1.09298989911101   -1.64845867088498    2.13058090316436
H         1.30523382301969   -3.51758887920544    3.52440042297676
H         1.80251792169158   -3.16698927191589    5.26985300621309
H         2.93642488397294   -3.75525497111144    4.01534696300514
H         3.91821007384221   -1.68935594599051    5.31519993402484
H         4.57939444218916   -2.32425599158377    2.87633454857338
H         5.68331391520285   -1.06331090668235    3.64668416397680
H         3.00656979290810    1.80150311521158    1.85667906756453
H         0.60491916784212    0.52684102894660    2.90910921794380
H         0.78707375523329    1.13558436727938    1.33479954976050
