32
 energy: -49.315654688539 gnorm: 0.149270556997 xtb: 6.4.1 (79825abcba525fcdf90b791dcacef51065a7a4e7)
C         3.78562650557936   -1.47186529927115   -0.26100502231339
C         3.15789250540271   -0.21466712873466    0.32867699287234
C         3.00401892411247   -0.34361242020680    1.86843271294353
C         2.32945589869113   -1.65079688085074    2.38400825321204
N         2.33728926239492   -1.79740026533248    3.85730312456911
C         2.15929305980216   -3.15930678354320    4.34048980443123
C         3.56250641002984   -1.14167212715348    4.40203586497392
C         4.72258802014779   -1.19740027103799    3.36950883162232
O         4.39468335254405   -0.26420285675114    2.30067824315173
C         3.36479119083899    0.32003867337923    4.63936790707936
C         2.70800485966046    1.16623322726734    3.79542426697972
O         2.59844696946110    2.38668360796158    4.37618142396265
N         3.16080988453324    2.26134278752720    5.65870878598373
N         3.63913251814488    1.02116831073669    5.77349194284233
C         2.25552304819903    0.97962287292865    2.39568640230440
N         0.78075822390350    0.93093369804344    2.39898862774897
H         3.10414893702786   -2.32901543766136   -0.29792069948995
H         4.57374373437387   -1.71618167963025    0.45521508171446
H         4.30917556292874   -1.30219139608549   -1.20646537570046
H         2.18194003101575    0.03994035997826   -0.09942422523566
H         3.79447642329371    0.64066318246269    0.07025481114959
H         2.67655298131793   -2.46544985379126    1.73444164674126
H         1.29197548740337   -1.55964643672056    2.04290721965639
H         1.19130888815204   -3.49564987989022    3.95027880473696
H         2.05026911476568   -3.25172884405066    5.42556604243478
H         3.05641137083309   -3.68074450307646    3.99129492978443
H         3.87158651132115   -1.69985536234003    5.29374976663202
H         4.98600740999497   -2.16012462860999    2.91735929454554
H         5.62484360916867   -0.78631395982400    3.83637310893116
H         2.64582899923347    1.82303322127540    1.81934774280578
H         0.43310503575922    0.16305969857170    2.98480174339449
H         0.51316270779842    0.90135930243811    1.41867907706883
