32
 energy: -49.316198430637 gnorm: 0.144338958080 xtb: 6.4.1 (79825abcba525fcdf90b791dcacef51065a7a4e7)
C         3.53363197301517   -1.52928410749812   -0.36751344634573
C         2.88809911095873   -0.32902599460221    0.31438821261827
C         3.02694557837262   -0.32418539257356    1.86094886661115
C         2.07958870629659   -1.43875550403988    2.39931031315688
N         2.21117351322930   -1.76856586306333    3.83669065914717
C         2.06846777808061   -3.19148691287276    4.11031840037060
C         3.47160236084980   -1.20958632868424    4.40829472279136
C         4.63709445744130   -1.36946936865162    3.39287726134820
O         4.41390069987782   -0.43549343058325    2.29804796136419
C         3.41132179164203    0.26003649992495    4.67019406199382
C         2.88624828685842    1.21413404246616    3.84943218482468
O         2.95195372145587    2.38803146466574    4.52502715586781
N         3.56402200856200    2.12828410393299    5.76387441099465
N         3.85862987399303    0.82841479715934    5.82342641065146
C         2.47904362033729    1.07760351174817    2.43014607611963
N         1.03008355818818    1.35561614527865    2.45330928004188
H         3.69333294036168   -1.21812723173378   -1.40585722552265
H         3.05785620033944   -2.51284656695710   -0.37324006951782
H         4.52537642864141   -1.66456207917003    0.07399638726077
H         1.81849001358132   -0.28383709398739    0.08099327578318
H         3.38085143660451    0.58392774192583   -0.04243340896873
H         2.20309639169931   -2.38092422063622    1.84873189881850
H         1.06414481594069   -1.02729487139352    2.42375974988649
H         0.98565469407082   -3.28463128359544    3.96463170527442
H         2.48411312438089   -3.44279655239174    5.09108387320569
H         2.52324069469897   -3.85399539184835    3.36673267756030
H         3.71703641301875   -1.64165033218259    5.38570740174893
H         4.76817567354072   -2.38982651057532    3.01557607829150
H         5.54180532609357   -1.00749894516926    3.89437004425103
H         2.96116700980667    1.86463402519348    1.84364287501734
H         0.50923801550079    0.66344396945614    3.00402501672222
H         0.67264379082331    1.32982444755251    1.50196264565194
