32
 energy: -49.314058742282 gnorm: 0.143960837634 xtb: 6.4.1 (79825abcba525fcdf90b791dcacef51065a7a4e7)
C         3.50154947463698   -1.47068951854147   -0.50168659083089
C         3.04766376752504   -0.24511306270259    0.28206860206082
C         3.14263207892904   -0.38151820412808    1.82593591769521
C         2.51614212998044   -1.72915024387530    2.29602404976494
N         2.40458310500493   -1.70378812281067    3.77218902797160
C         2.13129196876984   -3.04813174041883    4.26003488337676
C         3.54242187148114   -1.06826329894144    4.49972002253265
C         4.77351550275763   -1.15729930721002    3.55553355796419
O         4.51127352556106   -0.41811300946402    2.32850036372683
C         3.18585791000572    0.34746884096316    4.81686496014226
C         2.77736061339332    1.19387844598054    3.82874801229507
O         2.64665347627150    2.41145628194859    4.41115747675786
N         3.05019881560055    2.34633101643626    5.75642646772842
N         3.37343477576029    1.06751409176637    5.95679171356645
C         2.44646279239962    0.94895450909510    2.40419609246017
N         0.97600008079615    0.85402116934515    2.32647929562317
H         2.93059629641653   -2.38852883244828   -0.32262162014648
H         4.57092303626590   -1.63391072730281   -0.34809779862962
H         3.43703504031934   -1.25352932451859   -1.57195172892027
H         2.00856086514695    0.05500152444390    0.10663984457266
H         3.77997379533123    0.52805847316591    0.01836640136005
H         3.26264830378339   -2.47126366544706    1.98286460861847
H         1.56597831647490   -2.03301891955464    1.84228793019909
H         1.42424072465887   -3.57281306319671    3.60645037682241
H         1.56135239919579   -2.96022777345364    5.19022856386835
H         3.05859731886593   -3.54438646999411    4.56415928215553
H         3.57488389244691   -1.58827898285191    5.46449078482539
H         4.98370908494774   -2.20224926193405    3.30143630343786
H         5.72738028799640   -0.74466501698397    3.90323207361405
H         2.87001673920836    1.72019031389130    1.75485536686885
H         0.56318029875820    0.03769887736439    2.79217014269845
H         0.67906090222334    0.86027594505544    1.35422582034280
