32
 energy: -49.317124339103 gnorm: 0.150077077559 xtb: 6.4.1 (79825abcba525fcdf90b791dcacef51065a7a4e7)
C         3.67990383541775   -1.44765549664772   -0.25182246524415
C         2.79797667513447   -0.33332593864963    0.29844675330925
C         2.90909568093640   -0.24532782835658    1.84475220144365
C         2.15510098415107   -1.48620998080357    2.41157502433153
N         2.34029991328624   -1.81783270122999    3.84261640016234
C         2.02201497097935   -3.19048546193284    4.20930491727529
C         3.60685045413142   -1.21115735414256    4.34824962391742
C         4.60648152401966   -1.37342329999480    3.16951533682588
O         4.32605047023430   -0.34747738844751    2.17474344340486
C         3.40898568821116    0.21566031644259    4.74455396844474
C         2.93658738284493    1.17415103552601    3.89732923181501
O         2.96081831905902    2.37691051900028    4.52307952197788
N         3.50332076211850    2.13648664060004    5.79772702730970
N         3.81123456272135    0.84125426978894    5.88469049825941
C         2.42598064738625    1.13998427215169    2.50558834706336
N         0.96800830116346    1.33337579143204    2.38630222498798
H         3.91414219442027   -1.39760738720862   -1.32098493223618
H         3.19359912313297   -2.39757721718371   -0.01741481114902
H         4.54732391282261   -1.49973828449848    0.41275102378624
H         1.75540747039943   -0.47058544296589   -0.00943006973759
H         3.03493325198719    0.63883361379802   -0.15140703940281
H         2.38203135508199   -2.33547551336604    1.75330206123499
H         1.07406215629310   -1.33794817891320    2.30960733111499
H         0.92733524917042   -3.25106970671446    4.22906634695910
H         2.46437442160466   -3.35931784192918    5.19603296754382
H         2.53959253833517   -3.91349371207640    3.57053410617753
H         4.02247876154795   -1.76820002184474    5.19631170594764
H         4.54999768956485   -2.37469597869515    2.72800682442319
H         5.62229659392823   -1.13371889249071    3.50370225255545
H         2.95150352244047    1.95718898019677    2.00374357423199
H         0.45268305203897    0.62864767775814    2.92618035673700
H         0.73313800145934    1.37083061570734    1.39790863094212
