32
 energy: -49.319081101798 gnorm: 0.153501818690 xtb: 6.4.1 (79825abcba525fcdf90b791dcacef51065a7a4e7)
C         3.76059043611922   -1.24933425220547   -0.33212384171230
C         2.74980735544907   -0.28267134446837    0.27302281991026
C         2.85446762625122   -0.33588703786882    1.82136579097300
C         2.09564592873595   -1.52597827744428    2.48277119058742
N         2.31334068426415   -1.74296335857763    3.93110753311475
C         1.94428008595738   -3.09507707228619    4.32547305181981
C         3.64581504881182   -1.23051201620767    4.36674030446843
C         4.66575545433467   -1.34714462772306    3.20006749221623
O         4.26615564356701   -0.38267696061285    2.18473512299490
C         3.44482529712014    0.20963073437922    4.70968092388739
C         2.82126053462256    1.10960590387022    3.89674423349905
O         3.06443265192064    2.30723645451679    4.48439151973029
N         3.66340818228561    2.08542422045758    5.73693551166005
N         3.91489975733778    0.78029775400103    5.85268242110595
C         2.36976427153780    1.04720221886356    2.48568569352905
N         0.91849209698358    1.29089143178898    2.37734611844188
H         3.72305030150146   -1.30982439150529   -1.42547304737986
H         3.60888523241184   -2.29636021622180   -0.05915377499619
H         4.76861812974439   -0.97679449782602   -0.00594845774320
H         1.74613726805585   -0.50027411945519   -0.10891204679226
H         3.17424990336485    0.68453440806417   -0.02357894571438
H         2.39835151555893   -2.38536257592630    1.86966386736106
H         1.02598578366766   -1.45791611658173    2.25425722638608
H         0.86032859518478   -3.19295070343603    4.19185202955008
H         2.14821262644906   -3.26334774765685    5.38750647858612
H         2.44179162139838   -3.90700208127026    3.78518084414178
H         4.01948867489910   -1.83521034625364    5.20158200877132
H         4.62832035133904   -2.34259413490906    2.74361808241878
H         5.64604566971623   -1.02416284103153    3.56848738278069
H         2.87564897562573    1.85575727353322    1.95074140420565
H         0.27008340859476    0.75374036928282    2.96446205975374
H         0.58987126830198    1.07914510408078    1.43891089898081
