32
 energy: -49.310920565690 gnorm: 0.150663132742 xtb: 6.4.1 (79825abcba525fcdf90b791dcacef51065a7a4e7)
C         3.60283453074614   -1.54598296900276   -0.40810943550175
C         3.10015830705884   -0.28047888309076    0.27609675385164
C         3.15782052301799   -0.32094480655341    1.82728636387572
C         2.53742207597947   -1.66151162427065    2.32485142632571
N         2.34879048528275   -1.67805910515232    3.79328460750363
C         2.12935917564027   -2.99166808050132    4.38169156813880
C         3.60704343039023   -1.13487556275263    4.38457251318377
C         4.79483918681480   -1.17910486728668    3.38347709324767
O         4.56141516943007   -0.33024188254926    2.22342426701324
C         3.31668785553006    0.29401914243556    4.71010258581566
C         2.74501819013502    1.17446451278425    3.83966356063012
O         2.42231621652651    2.31487680490206    4.49852937564597
N         2.85922901525424    2.09630326793399    5.81692674267315
N         3.41913446249643    0.89054591538689    5.92942360755950
C         2.43119403760274    0.99488139152237    2.40157678780856
N         0.97122997343065    1.13198669202283    2.23719957475524
H         3.03117186046264   -2.28947637659140    0.15837105821566
H         4.67290888983787   -1.65022507624193   -0.21352026852652
H         3.45321271100027   -1.46559468481017   -1.48882177604975
H         2.04417968098202   -0.13233737708699    0.02402118711403
H         3.63839577597437    0.62984547735193   -0.01582966622462
H         3.18231349661515   -2.52559548881483    2.11617282163938
H         1.51159442182864   -1.76068894841573    1.95220494514424
H         1.20590896107520   -3.44986907230991    4.00795875932353
H         1.98108313935431   -2.69301935345066    5.42411262575873
H         2.94637739918123   -3.71758162266056    4.44639373812458
H         3.92724274001409   -1.67175211072753    5.28539918404073
H         5.04298594753415   -2.20254086664686    3.08070803065670
H         5.78002844058172   -0.91001788142167    3.78098643568918
H         2.82256707623074    1.80650207065831    1.78194382826213
H         0.41941161789842    0.37989737334677    2.66560169608834
H         0.68287449516803    1.05152606513848    1.26567190215403
