32
 energy: -49.308553496709 gnorm: 0.146265079656 xtb: 6.4.1 (79825abcba525fcdf90b791dcacef51065a7a4e7)
C         3.60187355853275   -1.53179023955905   -0.40259250976014
C         2.98454929009156   -0.31629446652125    0.27843822266403
C         3.06884200428352   -0.35174717654557    1.82853159754008
C         2.34900575201405   -1.61045792556025    2.40042986829444
N         2.47721022150401   -1.71685912501624    3.87161785318969
C         1.99014479066670   -2.92524615941387    4.52162509907726
C         3.76480905461115   -1.16547625658652    4.38730806338241
C         4.88472110472105   -1.29693711486699    3.31795215607935
O         4.48063588479953   -0.56820098452347    2.12361699328498
C         3.33105023721801    0.22500866795920    4.71960496058910
C         2.84887949481708    1.12377381782809    3.81440501776505
O         2.50673681163400    2.23284409908047    4.51560572449267
N         2.91620267248767    2.04490735703556    5.84746768889123
N         3.33222905343127    0.78240543532837    5.96153519428664
C         2.51343002004696    1.05746214946756    2.37152398096844
N         1.09164036120145    1.43233974126128    2.24785603160386
H         3.21933742187282   -2.55635666500896   -0.33618058799730
H         4.63906850681179   -1.62786408540463   -0.07276384231817
H         3.57637782649749   -1.29950272742912   -1.47132101052869
H         1.93105204758157   -0.13114370903803    0.04086378975577
H         3.53789013165474    0.50368644932134   -0.19596272142697
H         2.75458783569923   -2.49166880965488    1.88560642537737
H         1.30944883453264   -1.47786220279471    2.07986208016967
H         2.19401088081600   -2.68974101033263    5.57298640901707
H         2.66711907951506   -3.73439301530824    4.23041095137975
H         0.95525665588002   -3.08244531238119    4.20076594984640
H         3.98602007392486   -1.64407887282971    5.34869140960175
H         4.99138871041972   -2.35292779469930    3.04560519074672
H         5.85301395706604   -0.82531777410358    3.52044534987018
H         3.01592240359648    1.86688813034606    1.83470280673687
H         0.43154237840663    0.82761076410182    2.75009475509182
H         0.75458842514832    1.45876517200855    1.28911388607502
