32
 energy: -49.311802045241 gnorm: 0.148871741650 xtb: 6.4.1 (79825abcba525fcdf90b791dcacef51065a7a4e7)
C         3.39620142494822   -1.46827280506000   -0.49955736393729
C         2.83390066999285   -0.29279436037227    0.29062643812985
C         2.98137026849033   -0.38095523000091    1.83388020412714
C         2.21023740804181   -1.57305085322741    2.47718960490675
N         2.43792849118880   -1.74283153078535    3.93028393121781
C         1.99143842076631   -2.98716646207168    4.54038118934061
C         3.76498620109947   -1.21691118048646    4.36639859478629
C         4.75510964737774   -1.38638248165953    3.18067423886961
O         4.41552780238655   -0.52665684688222    2.05535926414874
C         3.49215513556870    0.21932085962986    4.67432282139616
C         3.00900572895500    1.16004827815992    3.81336214401366
O         2.76492698007107    2.23914750556208    4.59742307455776
N         3.13353594245842    1.96659995083527    5.92658977185670
N         3.58625567050249    0.71166302745793    5.93995615359005
C         2.55132612445601    1.06001678842784    2.40646743074362
N         1.17601371839364    1.57483961159564    2.26229302954875
H         3.72991179129896   -1.02902078619848   -1.44622302353234
H         2.75268485369876   -2.35078310909769   -0.52875488274967
H         4.30885563615191   -1.73518668875802    0.04137461791687
H         1.83227065029957    0.09439479415076    0.07290928587629
H         3.45096254866767    0.58850841379717    0.07579827285366
H         2.48675086920886   -2.51456761384120    1.98407786496504
H         1.13723835477306   -1.60087588340300    2.25600465158922
H         0.91507806755631   -3.09116864710234    4.35867644674410
H         2.01580492619010   -2.97181312757695    5.63445114640599
H         2.52748889619271   -3.84561922183001    4.12281157036399
H         4.14149128721029   -1.80932805825954    5.20873997170617
H         4.75613737561818   -2.40451074735615    2.77560511505809
H         5.78553314182505   -1.14378389901505    3.46421039474350
H         3.08958532694709    1.78883725325058    1.79414081747781
H         0.40830902990302    0.93719933856131    2.50253177521556
H         0.95344347364487    1.97739421660809    1.35570540162537
