32
 energy: -49.310258379848 gnorm: 0.147838325300 xtb: 6.4.1 (79825abcba525fcdf90b791dcacef51065a7a4e7)
C         3.83995611045892    0.20029461653490   -0.34340764907844
C         2.90208131104914   -0.77639140704762    0.35573279967407
C         3.00439378121782   -0.75638844857717    1.90501769639034
C         2.19280660208438   -1.92907959138503    2.53406965125886
N         2.19710920949138   -1.71012341038735    3.99837542115506
C         1.51272247704645   -2.80179310820227    4.67647088736691
C         3.56057378304159   -1.30162608889962    4.44778005406306
C         4.69030584821850   -1.67594624131159    3.44848183667158
O         4.41295498520019   -1.01546154856614    2.18056457710509
C         3.46828475903026    0.18110868997526    4.60588320932944
C         2.98624416119512    1.07234186672582    3.69319779291777
O         2.80265834838526    2.28708822382274    4.26719123396038
N         3.31431837363428    2.13544864968289    5.56797878882881
N         3.73504636981501    0.88141774019530    5.74232007529339
C         2.60143175147293    0.75114721944508    2.29763959169466
N         1.27178678322137    1.28912559581589    1.95132134966079
H         4.00825055122892   -0.23944180143612   -1.33274564460868
H         4.81200422745458    0.22185236397107    0.15503815363051
H         3.38768581038122    1.19501123667179   -0.39611960982638
H         3.21375531754879   -1.79832159040799    0.11263430781438
H         1.85282065488899   -0.65121640839998    0.06078475776014
H         2.60022538733475   -2.90107983445525    2.22536576172558
H         1.17792611750509   -1.81765623467667    2.13579040284036
H         0.44857722065176   -2.55915434298154    4.57108604483324
H         1.65825483969537   -2.54624725736081    5.73066970891775
H         1.92026485972215   -3.79272354838212    4.45147824581297
H         3.90138579880144   -1.68999556466251    5.41487314625327
H         4.90018785364352   -2.73159418314973    3.24299671886618
H         5.61882987294181   -1.25961834058913    3.85534000838488
H         3.28515482186740    1.30496374546576    1.64828912870368
H         0.56263455623586    1.21651031228761    2.68990130967774
H         0.83820634726756    0.91305518780506    1.11223383124111
