32
 energy: -49.313483222107 gnorm: 0.153493934936 xtb: 6.4.1 (79825abcba525fcdf90b791dcacef51065a7a4e7)
C         3.45227430028533   -1.42172593343069   -0.43658385067207
C         3.21156810270368   -0.12017124229473    0.31862341003711
C         3.10855621641061   -0.34360528567646    1.85179575077573
C         2.41630669102902   -1.67406700729850    2.27635061731300
N         2.33563920237769   -1.66168664256219    3.75469130506650
C         2.04874463947463   -2.96767945017153    4.33089933218518
C         3.58946915461546   -1.13400264825533    4.36896346105213
C         4.82788067334500   -1.19357763460974    3.43205643661055
O         4.51513934841251   -0.44201696885908    2.22452708628694
C         3.24536774370161    0.29438102512051    4.63975967797124
C         2.90567210814348    1.26264180580713    3.74157688887969
O         2.78718169294622    2.45034132113969    4.38509131655963
N         3.22193593492552    2.20815282369406    5.70007127259771
N         3.41761027107451    0.89676329468275    5.84829241819592
C         2.32475092587655    0.94388108487165    2.41502063683189
N         0.87979361633037    0.73959220394715    2.63337185832279
H         2.72162126876301   -2.23746261946395   -0.40193404187904
H         4.30093653995043   -1.84947843782390    0.10248079749478
H         3.62532307280547   -1.18286763253536   -1.49004906792749
H         2.21185258528530    0.19997326208778    0.00452909282155
H         3.95573612337917    0.65834622309550    0.10949291793777
H         2.96203898664758   -2.51463822089585    1.82725271317730
H         1.38397459407196   -1.75396115548211    1.91728059021142
H         1.57267592638723   -2.73733945855151    5.29146517135797
H         2.96896741076973   -3.55854829283811    4.37428788641086
H         1.31057442798567   -3.44567022008414    3.67876040173333
H         3.81438222950825   -1.66895578047218    5.29928167322593
H         4.97472772104439   -2.24183092967138    3.14874010383875
H         5.62383353393298   -0.72709967207468    4.02356020604086
H         2.47588715430588    1.83580052248699    1.80062373528492
H         0.72824313717576   -0.04192913519849    3.28138966180466
H         0.41480132550777    0.58062731266968    1.74342739305018
