32
 energy: -49.320320436025 gnorm: 0.141122015880 xtb: 6.4.1 (79825abcba525fcdf90b791dcacef51065a7a4e7)
C         3.88401793085016   -1.23447600709083   -0.47178165738719
C         2.97613782199812   -0.28710592259055    0.30318009246470
C         3.06609504515250   -0.36442289119329    1.85143117398452
C         2.30059453588591   -1.62527431349622    2.35526376467319
N         2.25513499187142   -1.67441688209666    3.83434122472295
C         1.83160928408663   -2.96765986865040    4.35211524520809
C         3.53861680540291   -1.20457641089896    4.43417001851961
C         4.66304751803164   -1.37518449385201    3.37513484343888
O         4.42676530305857   -0.34237648167452    2.37600720722575
C         3.42532589478815    0.27312603718269    4.62278846749386
C         2.83966290939499    1.17801084602001    3.78742225336929
O         2.84687092174865    2.37382098853338    4.42677119846971
N         3.39844548590830    2.16076644720477    5.70239342457970
N         3.74215506757448    0.87546586537496    5.80172411739075
C         2.35295341099462    0.96861134287631    2.40246918805999
N         0.87807371171280    0.99313096621145    2.44043599443804
H         3.70621872977953   -1.29808114558463   -1.55105114691315
H         3.87754942143506   -2.21711426870495    0.00589050910807
H         4.90375913970624   -0.86541730308168   -0.32786616813547
H         1.92142990183673   -0.38304686859459    0.02217227804791
H         3.27987438879321    0.74276707340886    0.07797627534400
H         2.71523107806205   -2.54756079921103    1.92685180922587
H         1.25074820223410   -1.66547340399684    2.04344551381053
H         1.14520985564434   -3.36108639154073    3.59286821269105
H         1.25120993033220   -2.75220468195280    5.25463070539548
H         2.66501851429913   -3.66511047851611    4.48495845993576
H         3.73191001204294   -1.67149161823309    5.40724794090664
H         4.65717179898543   -2.43458545068216    3.09530943679989
H         5.67764030397179   -1.18364204575995    3.74246619695923
H         2.70017054118422    1.81946060913474    1.80972828107470
H         0.46650524229765    0.33514511303446    3.11225161930118
H         0.50232226527104    0.62304948149217    1.57133337564626
