32
 energy: -49.313180377391 gnorm: 0.151846139669 xtb: 6.4.1 (79825abcba525fcdf90b791dcacef51065a7a4e7)
C         3.85213074352820   -1.46190893709763   -0.38350154707998
C         3.04530596980923   -0.39311052101738    0.34384005960186
C         2.95989161108003   -0.38312057509423    1.89424523896228
C         2.16802568638129   -1.62239710543950    2.41070109437451
N         2.17753295873909   -1.81286944925796    3.87895910693251
C         2.03142998817195   -3.22480021763423    4.20306836392618
C         3.40942450599042   -1.19177883715372    4.44866067798154
C         4.61833662195009   -1.12540917636991    3.47442579257602
O         4.36147252287919   -0.31532418322855    2.29181814577135
C         3.23397625518551    0.27777551273869    4.65272979974027
C         2.91811572010367    1.24592806254021    3.74577493125695
O         3.03137574665022    2.44435460777205    4.37005604238817
N         3.48448839493335    2.17753313573366    5.67402461241575
N         3.61815755374603    0.85840871451540    5.82249605147647
C         2.37856043388977    1.03629066066978    2.38057841247326
N         0.91404425777027    1.20851482124096    2.32724904739592
H         3.40249707435687   -2.44667369012286   -0.21453780359389
H         4.89204461699684   -1.49372482886056   -0.04979901823542
H         3.84593759343180   -1.21424929821741   -1.44905984004675
H         1.99849612338014   -0.43207626580525    0.02251518777242
H         3.39572223141481    0.58615835310566   -0.00523294543848
H         2.74147449976185   -2.47292151172296    2.01848007696623
H         1.13521905901912   -1.53118726555754    2.05571496764857
H         1.82720777529377   -3.27487978892754    5.27925142625813
H         2.86180378529363   -3.85604265371764    3.87166099439534
H         1.13844036742933   -3.59519087061851    3.68922410579388
H         3.55918002999334   -1.64519091661561    5.43569841527810
H         4.91457789053467   -2.16788928110601    3.31273623636867
H         5.47655535856007   -0.65281012303065    3.96547578169301
H         2.76949200334723    1.81969647144229    1.72537322474874
H         0.61373451539906    1.21916938349709    3.30876357330507
H         0.47073703096636    0.58600438897424    1.65684000916491
