32
 energy: -49.308775289659 gnorm: 0.141784413540 xtb: 6.4.1 (79825abcba525fcdf90b791dcacef51065a7a4e7)
C         2.82244948642422   -1.85153540260996   -0.17865656869518
C         2.76752774931901   -0.43804909099683    0.38823154961010
C         3.02868240140543   -0.44577318922209    1.91888180778593
C         2.00885871024580   -1.34160179614042    2.68506413303758
N         2.63437941053191   -1.87628605579376    3.91591273730810
C         3.01676819166016   -3.27902675645457    3.83820346508660
C         3.75383482477110   -1.06229972313983    4.47458620059632
C         4.88140659090319   -0.88088714834235    3.42069891097182
O         4.33728577424845   -1.06844761023533    2.08296526313724
C         3.18758939299498    0.26133547134689    4.87380074699069
C         2.87896621936732    1.17890947330376    3.91335082456315
O         2.36963588331430    2.28188520583173    4.51568633553678
N         2.30056058530766    1.99184639296581    5.88971140516861
N         2.75860550339850    0.75167213897534    6.06905219625662
C         2.94005093531615    1.07560045790515    2.43537072658091
N         1.96254067196076    1.98224822219918    1.80309205775691
H         1.91038203491894   -2.45728305839437   -0.13762556370999
H         3.50743603617984   -2.51686892331058    0.35230032920568
H         3.03924419229911   -1.76106215968606   -1.24711469904285
H         1.74874317046522   -0.04230018807214    0.31051638525172
H         3.42826626837330    0.23012489716687   -0.17796556615518
H         1.61975090838268   -2.18494549380247    2.09902731774684
H         1.08274597524933   -0.80509410918626    2.92064557314961
H         3.53222067768283   -3.47993118706463    4.78495095292971
H         3.69648321134208   -3.66135414890524    3.07032863411969
H         2.07520038865211   -3.83581228029450    3.88398089256833
H         3.98935905525709   -1.56725273577091    5.41893969108616
H         5.62097726027395   -1.68707627297420    3.48202988082213
H         5.30317520506911    0.12511389609496    3.52601978233755
H         3.88011098625225    1.54884342586854    2.13842933409634
H         0.99154139071975    1.66766938291442    1.91204512026502
H         2.23085720991391    1.87655949879595    0.82824594126579
