32
 energy: -49.314874350904 gnorm: 0.149170042249 xtb: 6.4.1 (79825abcba525fcdf90b791dcacef51065a7a4e7)
C         3.16576967928858   -1.49219144052329   -0.51301660997645
C         3.28753277347305   -0.20153685233833    0.28804928234872
C         3.18206623012957   -0.31684691992556    1.83295446306863
C         2.57489936617735   -1.64371093119665    2.38101003937107
N         2.35556140436753   -1.61835324625742    3.84504540467798
C         2.04382323111610   -2.99275872077462    4.21079162727630
C         3.62446503698025   -1.12436763248260    4.45638165848042
C         4.80813782958499   -1.14340263824003    3.44962278267595
O         4.54641478225441   -0.23506649323987    2.34183029222284
C         3.34052886646402    0.32011465699089    4.71107254586272
C         2.80441281805399    1.19809049670117    3.81586733578659
O         2.69312756903817    2.40684192702227    4.42028150875322
N         3.12539389585258    2.22042589198923    5.74513383488189
N         3.46248583516175    0.94095561305771    5.91638008638398
C         2.36703353322417    0.93888950052852    2.42290521343675
N         0.91533783670934    0.67456216320529    2.41805917277275
H         2.12712820890977   -1.76353381404719   -0.29374961312446
H         3.88150197114079   -2.25682142095505   -0.20179519011890
H         3.26534778558931   -1.30199011984626   -1.58572150180632
H         2.54031703910868    0.53725133032258   -0.02249784929227
H         4.27047129982299    0.25334673886770    0.11333861215191
H         3.17468714878616   -2.51318148497043    2.08043026537664
H         1.62897697121452   -1.85205162260988    1.86832212451987
H         1.80110623525466   -3.01994768701308    5.27977894360217
H         2.85132744425112   -3.69674724980333    3.98683716547841
H         1.15030076005921   -3.14027904111513    3.59555917282595
H         3.87233844583141   -1.53986981393188    5.44033767065936
H         4.95151095402508   -2.20583518420191    3.22302092028486
H         5.77958934091293   -0.72533161692954    3.73688213518730
H         2.45657992174807    1.83566220745476    1.80352960714829
H         0.75134777689047    0.02019593705298    3.19174019844758
H         0.57642482231133    0.22023390390114    1.57413227033978
