32
 energy: -49.318449886691 gnorm: 0.156374178805 xtb: 6.4.1 (79825abcba525fcdf90b791dcacef51065a7a4e7)
C         3.48456913373416   -1.43193190361794   -0.43404554239457
C         3.03414839823181   -0.21542934012269    0.36568239100784
C         2.99932725768780   -0.25464736092212    1.91758480232074
C         2.21612587129528   -1.53635824996031    2.33399497875877
N         2.29974235660530   -1.70232006069712    3.80287777435876
C         1.78956973918063   -3.00963300495657    4.19094755106659
C         3.59028971179315   -1.21779194883199    4.37523278285625
C         4.74326260135420   -1.25548160299980    3.33396430158072
O         4.41838796166578   -0.35031004887440    2.24039279670306
C         3.34351753986894    0.22465521681625    4.67600839476905
C         2.91023712898354    1.19391589849725    3.82017183947854
O         3.07578743746815    2.39697206885166    4.42352073867815
N         3.70178274272628    2.13359044384477    5.65461732461927
N         3.85070529250498    0.81498804245571    5.79285709308781
C         2.30865984275363    1.09008804715839    2.46881923282448
N         0.86550522061038    0.93651995941069    2.73534207350485
H         3.63667385861490   -1.07743099391257   -1.45955715280324
H         2.77525843330805   -2.26268546125466   -0.45679089810930
H         4.45801915723255   -1.69574196491508   -0.01026796707677
H         1.99944556233265    0.02102240198737    0.09354367938880
H         3.60838532925660    0.67414202035117    0.07840935966009
H         2.82901531550299   -2.34179749495472    1.90772418302804
H         1.18543859556906   -1.53434457644250    1.96156565066831
H         0.94960046397178   -3.31750246375654    3.55687131530128
H         1.38487023771595   -2.95366710541216    5.20628229113598
H         2.54980841301074   -3.79651277944123    4.15205029512834
H         3.84536652124965   -1.76023377142278    5.29335337052630
H         4.81564692453696   -2.27363579595750    2.93548002201038
H         5.74704903111700   -1.03562549514927    3.71487826386184
H         2.46539757209151    1.91434383084690    1.76747646035174
H         0.70875956073957    0.15322484772700    3.37997359224532
H         0.43291629080684    0.62444161254773    1.86991573597344
