32
 energy: -49.319256593382 gnorm: 0.133284830627 xtb: 6.4.1 (79825abcba525fcdf90b791dcacef51065a7a4e7)
C         3.74452627566746    0.28452277251241   -0.42191363835323
C         2.94682670999419   -0.78404623018182    0.31575686595903
C         3.04801032763175   -0.76906427085568    1.86517257527866
C         2.15173289164429   -1.86862332120030    2.51111472360326
N         2.07391287117273   -1.70625142207466    3.98071708543393
C         1.51701675680863   -2.88757747770180    4.62436049973321
C         3.39696195194017   -1.23461491750587    4.48566296478695
C         4.54556718716703   -1.66930487417881    3.53342471829536
O         4.43743400864319   -0.98082501739840    2.25472209290472
C         3.39346930944449    0.25185733738155    4.63534359889229
C         3.06175911436762    1.14810016352309    3.66252732721337
O         3.19123987275174    2.39590718634237    4.17730230288476
N         3.54375556652362    2.24426012322116    5.52992000645150
N         3.70010341656226    0.94095586357196    5.76856996360757
C         2.66706590186184    0.73420856170006    2.29441173781929
N         1.23969507971768    1.08523834136739    2.16516994482358
H         3.97412491354999   -0.11825617863136   -1.41465448312637
H         4.64224226077192    0.48173788695595    0.16885086895833
H         3.19092653962282    1.21771802160112   -0.56142021931437
H         3.29984208845238   -1.77576892719018    0.01170902137650
H         1.89045054523492   -0.70422497352250    0.03060951816905
H         2.62956868940443   -2.82725402156811    2.26868378611350
H         1.14608725936335   -1.81362780762985    2.07905423138445
H         0.81103932436987   -3.38718418756649    3.95028805692358
H         1.02558686441546   -2.76830281095263    5.59497304476308
H         2.31385073648651   -3.59882092513637    4.86486826467814
H         3.62454515426205   -1.62087317009030    5.48629434904792
H         4.44832846851798   -2.71993458834971    3.23780841151108
H         5.45529525595301   -1.30930477502299    4.02720009687592
H         3.21587559313970    1.33396193268741    1.56300910715539
H         0.66130903811464    0.58931617973103    2.85306602587361
H         0.92598309821326    0.69622469153471    1.27987790717412
