32
 energy: -49.318288873308 gnorm: 0.139579051407 xtb: 6.4.1 (79825abcba525fcdf90b791dcacef51065a7a4e7)
C         3.61879505521395   -1.28658852634913   -0.37958262264085
C         3.06500625532570   -0.07324138766871    0.35759360112895
C         2.96203636765780   -0.35570058043813    1.88099954160936
C         2.15386737667316   -1.61767753395576    2.30979050375117
N         2.11370046195021   -1.66216885891041    3.78916836106298
C         1.86057564469206   -3.04123594855354    4.18165170895977
C         3.38808023704539   -1.16869848228445    4.38942945702255
C         4.57059652019997   -1.37603662193631    3.40268066503790
O         4.36733384552638   -0.57934243074585    2.20070713808998
C         3.42220883578675    0.29552886583443    4.68420018565607
C         2.96366936711861    1.25759899403211    3.83342583101838
O         3.21302578518399    2.48871944479444    4.34425333829289
N         3.77103362506828    2.25153165954305    5.61279896547846
N         3.91865990944488    0.93589760237399    5.77806830880440
C         2.33950746114823    0.98525853057871    2.51620076109483
N         0.88440828665848    0.84818149500939    2.71920104290026
H         4.20259970273624   -0.95706640646209   -1.24622448130778
H         2.72452847563454   -1.84995603652801   -0.65652093974281
H         4.24632674481630   -1.94131802751642    0.23223547812763
H         2.00830072013324    0.06254119590214    0.10163390697184
H         3.61476028007322    0.86204212573228    0.19441788738079
H         2.74987947832250   -2.43399190563421    1.88028723653554
H         1.12452123045157   -1.58666801745563    1.93494541445450
H         0.96832900878430   -3.46145007484544    3.70238071166287
H         1.58925654893548   -3.10051342053362    5.24027847626597
H         2.72168189302104   -3.66569865836365    3.92242598999807
H         3.61931736325902   -1.77362139326598    5.27421778333249
H         4.59141557383535   -2.41790436287566    3.06393983718378
H         5.56277244699989   -1.18644484867473    3.82772329930530
H         2.46459837665893    1.84466886300381    1.85166171828255
H         0.74262702366986   -0.01618239093695    3.25440509297822
H         0.44712369746935    0.74548787635762    1.80721144320755
