32
 energy: -49.315653729541 gnorm: 0.144043445848 xtb: 6.4.1 (79825abcba525fcdf90b791dcacef51065a7a4e7)
C         3.38389441552439   -1.46005086569633   -0.42899668341530
C         3.05022912131865   -0.21711306000574    0.38714985622289
C         2.99468824384653   -0.31270808579033    1.93599731660089
C         2.21763489921836   -1.61130776906355    2.30937593775205
N         2.18424136172687   -1.77197848879333    3.78084509941185
C         1.96945051041289   -3.15833110993126    4.17050224031495
C         3.42337008556251   -1.20610047477996    4.39093713817145
C         4.63828773751525   -1.27417791057179    3.42432055486758
O         4.38963687131581   -0.30995176176481    2.36167367195128
C         3.29352116237020    0.25330237548747    4.68299683432289
C         2.92670845018411    1.25868954544599    3.83783444847067
O         3.16404277324804    2.44504559613420    4.45021723299199
N         3.78040649591683    2.15205609873967    5.67948193965948
N         3.86926094967000    0.82438249750314    5.77637438385106
C         2.38802966511207    1.07947272040736    2.46796737422542
N         0.91635874782267    1.18565159094414    2.48291999397030
H         4.03591934348427   -1.15592538530584   -1.25534527184173
H         2.48214866500454   -2.01024769028969   -0.70815354044689
H         3.93209986758400   -2.17830968984456    0.18773921853274
H         2.02469929721056    0.11441790362404    0.18978049724512
H         3.75018100308563    0.59607925878315    0.15824666921003
H         2.69114779068557   -2.49300761365851    1.85719947030968
H         1.19502005171404   -1.58468611364043    1.91621683759938
H         1.24392569747595   -3.59024377428388    3.47089531013514
H         1.64787405383180   -3.32068805926192    5.20396598166307
H         2.87769788473747   -3.74430143240216    3.99620046670476
H         3.70261432058117   -1.80079764141623    5.26878146340362
H         4.57096325334306   -2.26809853121769    2.96796938396124
H         5.60104682724403   -0.99063526565393    3.86445446699003
H         2.77321374093656    1.94803878204602    1.92660591793609
H         0.51678423566790    0.59398832017733    3.22044626916775
H         0.39642895541456    0.85044939256197    1.67619742044904
