32
 energy: -49.315112659227 gnorm: 0.142390865223 xtb: 6.4.1 (79825abcba525fcdf90b791dcacef51065a7a4e7)
C         3.58493854541378   -1.57569655799164   -0.35786470901304
C         2.98468687439481   -0.33173596031888    0.28601574872091
C         3.08781941409064   -0.33578556194459    1.83537009443782
C         2.29574068231517   -1.57083783998979    2.36152763946310
N         2.34370991366552   -1.67052771279261    3.83798033954296
C         2.20785739442469   -3.05899361599689    4.25469116778964
C         3.63000586168402   -1.09792592460439    4.33339948470003
C         4.82296050892666   -1.24446016512750    3.34831373364360
O         4.50520456812110   -0.50975225340833    2.13175582878014
C         3.33126805697138    0.31367679935562    4.72089105318501
C         2.87145321152092    1.26085172360985    3.85423984504474
O         2.65021602258481    2.43457630561855    4.49627225801397
N         3.01469249618283    2.19665459686470    5.83320492638321
N         3.43502851464389    0.93399863669686    5.92816808340075
C         2.44317339805108    1.00028155469102    2.45870810471021
N         0.97556593132211    1.14233830649200    2.40160293602618
H         2.85052431395276   -2.26183523940403   -0.79413325895525
H         4.21934384561052   -2.02819067232362    0.40801353582440
H         4.08529882251607   -1.21400555105972   -1.26097452328251
H         1.91906877651474   -0.22479128971279    0.05449953186486
H         3.40218746300584    0.57164139456289   -0.17573489091628
H         2.80617767714677   -2.41919045385958    1.88631763567662
H         1.25040994700243   -1.59129598233003    2.03306298311220
H         2.19307101341804   -2.99210315370057    5.34908218147314
H         3.03938980940498   -3.72535200886597    4.00501370464909
H         1.23977767580663   -3.45076482355666    3.92606889329618
H         3.93330016231576   -1.71875988236738    5.18476924938927
H         5.03154884986610   -2.26655066836032    3.01291983655205
H         5.69627722142915   -0.84156249581180    3.87368097168544
H         2.76093393499812    1.84968920222295    1.84765910834330
H         0.49054693444993    0.54687451703555    3.08266803337077
H         0.62809396804091    0.80657118058958    1.50716876548222
