32
 energy: -49.314711339960 gnorm: 0.153514612966 xtb: 6.4.1 (79825abcba525fcdf90b791dcacef51065a7a4e7)
C         3.20537506232744   -1.99962894142563   -0.02699209475317
C         2.79333356059800   -0.59963203095130    0.41181599711878
C         2.90847714778281   -0.40507857255216    1.94805899179270
C         1.90615004569072   -1.25244850745881    2.78882601780580
N         2.45649019538529   -1.99733501910295    3.94399765045228
C         3.03176905784905   -3.25996720193180    3.50268643378242
C         3.51347941324306   -1.13690153643192    4.55251899468467
C         4.68051942822109   -0.96253050644707    3.54127253876732
O         4.29758358062224   -0.80329315670554    2.14528496452670
C         3.05859754739216    0.26251522950269    4.81084334208555
C         2.82507407810854    1.19239747896473    3.84108040738726
O         2.63105117010726    2.36485523522190    4.49413389093813
N         2.76507054038064    2.14071177633184    5.87566829885686
N         2.92480264288089    0.82668563877843    6.04246582119300
C         2.82173010183059    1.14826686348873    2.35889601084763
N         1.68028940788735    1.91593197711751    1.82493325415779
H         2.47260184684160   -2.67296250360759    0.43142489177564
H         4.24061906819614   -2.21989929294335    0.24419292585018
H         3.10308352944072   -1.99772381383115   -1.11617570758687
H         1.82155827454708   -0.34883640165814   -0.02788071332711
H         3.49238800696524    0.09255445286312   -0.07378857648161
H         1.54746871822043   -2.10104097734489    2.19107091932721
H         1.06941687598183   -0.67977701002164    3.20469724031102
H         3.62919225598757   -3.71819595755076    4.29986683379515
H         3.57366578748462   -3.27423498912324    2.55191681597310
H         2.18361347754432   -3.94962236428982    3.44215966375265
H         3.95209127635349   -1.63222136332858    5.42689340778759
H         5.24766918136753   -1.90008464148033    3.54203146770790
H         5.41801596592896   -0.21078222853071    3.84457558369693
H         3.71676947283357    1.63270500947352    1.95880826766072
H         0.78935484189107    1.88070382642645    2.33352424294241
H         1.54123791035005    1.71810012380547    0.83750424216218
