32
 energy: -49.314352720034 gnorm: 0.145884832143 xtb: 6.4.1 (79825abcba525fcdf90b791dcacef51065a7a4e7)
C         3.56675127102797   -1.58318415277340   -0.32899538306912
C         2.91479896329570   -0.38194731144308    0.34503007618943
C         3.05735142154699   -0.30518874341557    1.88935469831581
C         2.30322374796885   -1.54867617108857    2.45026029128461
N         2.33971743751567   -1.73502357188916    3.91862487557040
C         2.30977044484563   -3.16324488800390    4.20010034333213
C         3.58886130145169   -1.10929193166847    4.44395309112209
C         4.69833097086387   -1.28443212448611    3.36998382237665
O         4.46274063542922   -0.35209366659859    2.27635687739258
C         3.35617513915637    0.34597034746371    4.68907572592027
C         2.72957775345643    1.21753852474418    3.84800558981260
O         2.65815525457344    2.37593517573474    4.54928794457795
N         3.25974751661075    2.24017443443499    5.81281260521242
N         3.55128955589233    0.94102576189833    5.89776206504890
C         2.39132773438906    1.06297456760947    2.41255229703277
N         0.94636190528886    1.24260651375995    2.17355667391535
H         3.05685516537672   -2.55142460794770   -0.38374190029772
H         4.58261849443345   -1.72222833145925    0.04845791692894
H         3.61340979496668   -1.35167208327539   -1.39717761083474
H         1.83448225955616   -0.42945643073724    0.16828857286405
H         3.25752442031165    0.49363866543535   -0.22021279048509
H         2.76268277527067   -2.40981525266143    1.94686232108040
H         1.24575435643241   -1.43489900935937    2.18599307693705
H         1.93323387340631   -3.21941870209392    5.22842391842665
H         3.30510662211308   -3.61822234751618    4.21105060964814
H         1.69142533985066   -3.74441145904696    3.50832699382099
H         3.87474615222593   -1.55613250088043    5.40356555206609
H         4.81826488432800   -2.28457559797578    2.93871122723417
H         5.68190163712215   -1.10057522692935    3.81697905255869
H         2.78918931666849    1.87482882339096    1.79737361079291
H         0.31405368101449    0.66082465003330    2.73514939903648
H         0.80595516322623    1.06245731670165    1.18294018480817
