32
 energy: -49.310769805932 gnorm: 0.152020220900 xtb: 6.4.1 (79825abcba525fcdf90b791dcacef51065a7a4e7)
C         3.44724784374788   -1.53305396222628   -0.37139758357589
C         2.83834620106977   -0.29365298133534    0.27315349166623
C         2.92593508807301   -0.33705749335811    1.82286180966623
C         2.11991316958168   -1.54001302669173    2.39975977715296
N         2.35317526980477   -1.75291415513998    3.84627752481768
C         2.09400975885513   -3.06195634431315    4.42867186642259
C         3.66208831548156   -1.22821119599488    4.33546426536998
C         4.69503273033410   -1.35858391458113    3.18175900580174
O         4.35394669872490   -0.44778654523863    2.09783733926779
C         3.42600507217487    0.19045406679691    4.74002557480031
C         2.94809930953330    1.14360585523036    3.88987139736351
O         2.76122929765457    2.26127825476423    4.63463239469347
N         3.24893919015704    2.02677050260775    5.93231647701635
N         3.66475254185828    0.75923350335199    5.95352170650611
C         2.56867362521951    1.09796073889113    2.45711811768787
N         1.24776919697484    1.68612261584600    2.16285648507088
H         3.88455702018353   -1.25851418932890   -1.33776676824785
H         2.62888211359948   -2.25438257178387   -0.43265984646962
H         4.27988200220974   -1.99754667389012    0.16503042349326
H         1.75745505496185   -0.25667366035185    0.09741015262534
H         3.20068297800481    0.69412858076398   -0.03766911792496
H         2.53095793783143   -2.43413915618597    1.91226280512743
H         1.04391158437216   -1.63123347947813    2.21288194072798
H         1.04473599975647   -3.36852700501702    4.34251116094454
H         2.19173991739734   -2.97707044010171    5.51543849380695
H         2.78973579453795   -3.81880895388289    4.05211505885174
H         3.95216298636907   -1.91699415427500    5.13776560526703
H         4.76836609666577   -2.34722687856573    2.71498874706975
H         5.71573570642534   -1.09050474884927    3.47725578954853
H         3.25057680457879    1.84542746074202    2.04221143015234
H         0.59366329059711    1.08936994720208    2.68218484218153
H         1.06798350100911    1.63996624429637    1.16333884617587
