32
 energy: -49.317395704160 gnorm: 0.149680309901 xtb: 6.4.1 (79825abcba525fcdf90b791dcacef51065a7a4e7)
C         3.76003407630565   -1.29724562625429   -0.50462885988175
C         2.87722892126991   -0.37813375970128    0.33096106084602
C         2.98926628152492   -0.38883413466718    1.87966528122525
C         2.29849725037513   -1.68234380068110    2.40811159768494
N         2.36635273882688   -1.79588226047184    3.88278320380708
C         2.10984568777844   -3.13740090678565    4.38723660960377
C         3.59867187951572   -1.18029680880549    4.45751297040611
C         4.77564278828815   -1.21382098406973    3.44330261407554
O         4.39634428250193   -0.45939494571491    2.25681548995191
C         3.23279675450680    0.24751361978668    4.70145774686641
C         2.83467611004923    1.18052160792282    3.79005749839030
O         2.85166445619680    2.40887815176097    4.36419383190773
N         3.29810966702496    2.18911026625485    5.67919480330402
N         3.53146812443924    0.88865549826788    5.86456383440953
C         2.34673645073707    0.99056672194119    2.40273586530397
N         0.88451695650584    1.16294003086795    2.30519408703950
H         3.71399934383604   -2.34054642352093   -0.17313971848296
H         4.76119209799880   -0.87079319235285   -0.40659094972348
H         3.66581017058050   -1.10592023332500   -1.57761747836972
H         1.80672877742323   -0.43265601754035    0.10372633771662
H         3.20725562279116    0.62221974546244    0.02438922005893
H         2.75981893472517   -2.55903407560838    1.93411888253662
H         1.23853461987175   -1.56760584374540    2.15446155640325
H         2.01636659174092   -2.99110411664474    5.46993858566426
H         2.83603852428402   -3.92216691477263    4.15355995944630
H         1.10710742730381   -3.37454207884641    4.01718841505004
H         3.92419210881600   -1.63680472275245    5.39979202998547
H         5.03751599511519   -2.24882783194352    3.19662384627543
H         5.60016431478337   -0.69579425739667    3.94612655597852
H         2.76740181311702    1.81612104451933    1.82192031262406
H         0.49622311092362    0.38804201477012    2.85513151870765
H         0.45735782455938    1.07029218010322    1.38734864100975
