32
 energy: -49.311480018408 gnorm: 0.154395931669 xtb: 6.4.1 (79825abcba525fcdf90b791dcacef51065a7a4e7)
C         3.51926421147338   -1.50028792326377   -0.53939124389320
C         2.95833316151140   -0.32356262514333    0.24990972327153
C         3.12609474084619   -0.45992265942229    1.78757471418138
C         2.35083309487913   -1.64956665535478    2.43045974661000
N         2.45535136488732   -1.61290818477049    3.90690269565861
C         1.85041462391497   -2.82630717771436    4.43761523979998
C         3.76167453963952   -1.11791562263498    4.43261396799464
C         4.83440439830139   -1.23943479815169    3.31480773606684
O         4.53042208960904   -0.38643576613535    2.17429683649882
C         3.50074013711582    0.30805255143423    4.79392308909330
C         2.94018940530903    1.12055342949734    3.85303012595910
O         2.48021375065953    2.20634000365643    4.52256044475050
N         2.83622315765470    2.05620523927777    5.87443161353489
N         3.44791016654738    0.88049322836613    6.02786146634075
C         2.62817406881247    0.93553685215749    2.41523856419839
N         1.19425013763570    1.22814551467972    2.22667782524544
H         2.90231114137535   -2.40326428049919   -0.47243297357806
H         4.51825251651688   -1.78760097588468   -0.20284396655575
H         3.54472349381199   -1.26319548428285   -1.60706494307440
H         1.89788798084185   -0.42887924007619   -0.00493000430360
H         3.34985167657835    0.63327065174613   -0.11723381416407
H         2.79694532691806   -2.52280155080485    1.93597281687834
H         1.30117656142271   -1.55133508005500    2.13113444262861
H         1.91245152284074   -2.87873395923424    5.53113593631314
H         2.30604065846900   -3.68269167137982    3.93083223190809
H         0.79858317124973   -2.69809642359896    4.16217337781603
H         4.05565470506892   -1.73890988252689    5.28712816164498
H         4.88207975583681   -2.32708444861810    3.19066077785205
H         5.80126402141536   -0.77719467987490    3.54401483814736
H         3.21649046441476    1.70197133674355    1.90307843470211
H         0.71692990597969    0.55462596821924    2.83676555987228
H         0.91634648531800    1.14387868287959    1.25243069125000
