32
 energy: -49.316416722707 gnorm: 0.151889094123 xtb: 6.4.1 (79825abcba525fcdf90b791dcacef51065a7a4e7)
C         3.57552091056505   -1.30181293787722   -0.49716576008039
C         2.90011023709954   -0.15520831806843    0.24542454290965
C         3.06835691001893   -0.40404302799230    1.76888309883195
C         2.31207767221054   -1.66802605068881    2.27875883082446
N         2.19036427063224   -1.49671802641695    3.74436147759762
C         1.64183818471164   -2.68507487816411    4.38222393814311
C         3.55592494123310   -1.22759757262458    4.28351679977100
C         4.72839842247248   -1.32521728572333    3.26824178185491
O         4.48248303245700   -0.46276694054542    2.12086097067669
C         3.49749571603806    0.20614473181454    4.69943181680470
C         3.12435028393065    1.18370294132162    3.82490520065348
O         3.06732179260902    2.38079261321410    4.45933800430228
N         3.41308312827903    2.09694198209822    5.79227338053249
N         3.68441529303406    0.79614520334018    5.91188543157181
C         2.46947355009645    0.88136701110350    2.52931316694825
N         1.01821511066078    0.78121341620388    2.77656003444145
H         3.63632451015108   -0.96739240606318   -1.53877347624628
H         3.10812315382783   -2.27836190822489   -0.34991787534694
H         4.62432951805963   -1.39393335163740   -0.20000845699594
H         1.85024220743894   -0.15915503605796   -0.06816818013534
H         3.33121932020226    0.83546012221789    0.05481486817516
H         2.88370229780081   -2.54326160807274    1.94218693867976
H         1.33741435183066   -1.52713752448741    1.79792023057110
H         0.60569500203529   -2.76074295405695    4.03141585837182
H         1.69314635541288   -2.48453728320465    5.45691954590420
H         2.11437766133209   -3.64719268306715    4.15930827627214
H         3.76976927256542   -1.92182662309531    5.10483850409571
H         4.81820787689621   -2.36894127994344    2.94692938927721
H         5.63569484998239   -0.99620637178437    3.78745692451341
H         2.56307266308356    1.70517252166105    1.81627061889014
H         0.83567555549525   -0.02040087521690    3.39118517363572
H         0.44090253020381    0.64885095474505    1.95031601697923
