32
 energy: -49.312706200192 gnorm: 0.156799006015 xtb: 6.4.1 (79825abcba525fcdf90b791dcacef51065a7a4e7)
C         3.81426979995947   -1.06841466420234   -0.44258442604975
C         2.71127434958196   -0.36932210158246    0.34290441400867
C         2.92749368452744   -0.42441604456021    1.87957793221696
C         2.14491967771190   -1.67072443519376    2.39326846019818
N         2.30969870486922   -1.66151023757668    3.86463336186394
C         1.68502363669202   -2.89598638461197    4.31827538444445
C         3.65259923585507   -1.25405490508617    4.37303136731299
C         4.72069371529011   -1.37553110417420    3.25079041444823
O         4.34405965370642   -0.41143607661740    2.22636605358645
C         3.52639970921201    0.19840821877096    4.69928407118580
C         2.96509625742520    1.12219383594511    3.86789190314978
O         3.05438065674092    2.36514309837423    4.40257532005031
N         3.62729743461030    2.15446921394164    5.66915405186047
N         3.87796529341661    0.85507708265645    5.83870098578796
C         2.39975523641384    0.96031605676734    2.50663718547399
N         0.92784716604716    1.02005720680720    2.59166924486614
H         3.74865339233823   -0.79053433036196   -1.50039244788493
H         3.87005879605530   -2.15353965669033   -0.32777226081173
H         4.79917410955701   -0.70537928191853   -0.13443358473179
H         1.76135100126414   -0.85448764119949    0.09222755224259
H         2.72789350273719    0.64623220783531   -0.07180548127260
H         2.59229324930158   -2.49056081822588    1.81551606837462
H         1.10645125784481   -1.61179207603026    2.04811018174394
H         0.59945879491389   -2.74445959765110    4.34947259683594
H         1.96530130858282   -3.02273132813293    5.36860802140922
H         1.83342136996571   -3.83817038590732    3.78075976902675
H         3.94753291180453   -1.77120782231209    5.29380262246843
H         4.79911007762795   -2.32719218808612    2.71333416384943
H         5.71038371360031   -1.16899739021465    3.67372880965015
H         2.78341858747938    1.73740182065899    1.83971429153025
H         0.65966087347385    0.18040388607559    3.11771928056869
H         0.39881966875366    1.07163620879542    1.72509072723792
