32
 energy: -49.315559342916 gnorm: 0.146681045323 xtb: 6.4.1 (79825abcba525fcdf90b791dcacef51065a7a4e7)
C         3.08769773141481   -1.52187301520117   -0.47975951809051
C         2.89545424954818   -0.22489307735131    0.29690486981593
C         3.05415326366477   -0.40729587401466    1.83075475481643
C         2.33520579834277   -1.67698858690904    2.37900612187704
N         2.44961771130019   -1.73069019594466    3.85419347830531
C         1.99796144664146   -2.97502364918238    4.46047909549900
C         3.73911255372814   -1.16970971219776    4.35456749383126
C         4.81664023919307   -1.30540806132392    3.24302484083712
O         4.48530338371187   -0.45612923112819    2.10736685640518
C         3.44868170267729    0.24478759044151    4.73779531910921
C         2.80225226179877    1.13340022246076    3.93023669497033
O         2.61583774182647    2.24090222073835    4.69015107722942
N         3.14198605110287    2.02837887403000    5.97655714910663
N         3.65859671082143    0.79836027065566    5.96359148113002
C         2.61907187222490    1.00642142555776    2.46423853883376
N         1.27504866947561    1.53232128966740    2.15708423263070
H         3.29455471344470   -1.25142546047567   -1.52117639589206
H         2.12974807401875   -2.04195799201376   -0.55482325677793
H         3.87258027342329   -2.23257064299435   -0.20470242810054
H         1.95223413568538    0.24102088292215   -0.00942640645692
H         3.72503082432506    0.46373962622665    0.09393010301940
H         2.79366881184994   -2.54040497085559    1.87860984160062
H         1.28942273254537   -1.55875989277895    2.07341870208937
H         0.92132457004815   -3.15574414076753    4.35763068186122
H         2.14895158109417   -3.08047944659238    5.53932085954542
H         2.45772112359157   -3.83001452414955    3.95425062966880
H         4.15890603262731   -1.74696300027601    5.18691645324960
H         5.04617433443948   -2.35266417432174    3.01667136592872
H         5.78087940096914   -0.90575425975083    3.57699943671457
H         3.34280687119288    1.68307051991905    2.00142145377270
H         0.54986621711550    0.89160859060707    2.49952819750926
H         1.04330314300852    1.69569907122420    1.18082068107097
