32
 energy: -49.310166189910 gnorm: 0.143640059837 xtb: 6.4.1 (79825abcba525fcdf90b791dcacef51065a7a4e7)
C         3.00447400251203   -1.71914387061379   -0.37082785209389
C         2.85161826411456   -0.39852065731530    0.37409599609696
C         3.08210432346667   -0.40277200025665    1.90967723491671
C         2.14061384161011   -1.43055602493643    2.60741664325051
N         2.56144440747574   -1.86910408044769    3.95750142427459
C         2.57447247438029   -3.28268810831695    4.30614426576892
C         3.76439618897812   -1.09699150867853    4.38717500508462
C         4.95911345351232   -0.93443102257531    3.40675072899154
O         4.50719534311053   -0.68154960957430    2.04564870966657
C         3.21560258568665    0.24855655797299    4.73407880394267
C         2.79536768794769    1.20001685695983    3.85216027125741
O         2.35537417026731    2.26706602443711    4.56391352982724
N         2.42383200982547    1.91450621197741    5.92327143101818
N         3.01064225387899    0.71847507710404    5.99513039117844
C         2.88786855948981    1.12556014133864    2.37407736800147
N         1.66894138497493    1.76597733690221    1.84361042102140
H         2.29005209633082   -2.44654919142955    0.03037489272373
H         3.96097068174566   -2.24535547260902   -0.32604006968048
H         2.73700298580547   -1.55418103073943   -1.41869933527854
H         1.80038024707683   -0.13748737528092    0.20875055372213
H         3.54438620558157    0.33750690786981   -0.05245652368268
H         2.15390155489684   -2.22972122149077    1.85426921125264
H         1.18100905080178   -0.92581366646103    2.76684597173475
H         2.82412429686993   -3.30071925760242    5.37372728429058
H         3.18558345918964   -3.96343690352142    3.70535899849295
H         1.60191226872130   -3.76451402295165    4.16252654959868
H         4.15720373384083   -1.63235105809852    5.25972592069174
H         5.55265081491642   -1.85317886066414    3.34130628758997
H         5.67678129955138   -0.16194754033308    3.70548384919816
H         3.82018116393045    1.52501338589620    1.96532767775975
H         0.81915180299164    1.26583509310302    2.12889208229442
H         1.72944829284765    1.88987590940416    0.83639799346257
