32
 energy: -49.317259444882 gnorm: 0.153226930303 xtb: 6.4.1 (79825abcba525fcdf90b791dcacef51065a7a4e7)
C         3.63965392231107   -1.38305984476030   -0.36407548230617
C         2.84187558444914   -0.27428279119501    0.31156145246587
C         2.99304608166582   -0.27644877709153    1.85697222176872
C         2.16037970735659   -1.48499393959282    2.38201502407686
N         2.33480391127415   -1.64372204493916    3.84370353209857
C         1.90141385592272   -2.89602113686290    4.44691281357075
C         3.69351913791136   -1.24033169611966    4.31171998063233
C         4.66473558446729   -1.42042712080038    3.11200697539160
O         4.42635134376079   -0.40877705117485    2.09195070053529
C         3.50853230585596    0.20430097811905    4.64463529061872
C         2.92345252834459    1.16236414624749    3.87039307510973
O         2.78547595554462    2.27035895808638    4.63986750960542
N         3.38313923286096    1.98845523322845    5.88090244145244
N         3.83802208326231    0.73451076031466    5.85434490287270
C         2.47603810403167    1.12414216981194    2.45717379843934
N         1.00244586720312    1.18105992542020    2.40619211539543
H         3.61337036919629   -1.14106627837499   -1.43235872873920
H         3.34012613569993   -2.40866113432938   -0.13556816040667
H         4.68253772712973   -1.30179224380996   -0.04379891923798
H         1.82770657627105   -0.54955929869947    0.00129877671663
H         3.09108370260107    0.70254203665600   -0.12124291596162
H         2.40201076601282   -2.43139296304846    1.88000311900604
H         1.10712140376338   -1.31542731376331    2.13118035899204
H         0.88138963409004   -3.10738089806547    4.10447697979579
H         1.81505437259095   -2.70041224309412    5.52027095769255
H         2.66742288884549   -3.66133310760922    4.28510005248882
H         3.93537534828829   -1.79458653933570    5.22635644863439
H         4.55150095099709   -2.43878599412541    2.72368971548960
H         5.69732882783574   -1.12928022005065    3.33562278881247
H         2.83016249827945    1.95666053932480    1.84288146164134
H         0.69970175782148    0.41278218870204    3.01591791784634
H         0.78716494833079    0.93113899138633    1.44458799898569
