32
 energy: -49.308867823311 gnorm: 0.152255222490 xtb: 6.4.1 (79825abcba525fcdf90b791dcacef51065a7a4e7)
C         3.69823737149665   -1.60148560574696   -0.20929392404155
C         2.93848989827088   -0.41481849305515    0.37116023305689
C         2.95442850871111   -0.34483280726579    1.92228872436802
C         2.05885248231382   -1.48997697865846    2.48458136464370
N         2.34688382622813   -1.88274207860278    3.88276776249297
C         2.44017457314837   -3.33370951254750    3.95978538881054
C         3.47751316271109   -1.10378447033256    4.46823555929983
C         4.69167501014651   -1.21301448974670    3.50444780195249
O         4.35914023977056   -0.58179379481697    2.23489718852452
C         3.16401493328346    0.33654879855470    4.71149507491779
C         2.85453734370573    1.28950209972913    3.78642319295145
O         2.88618454111220    2.45858832804769    4.47272980835129
N         3.26481473402232    2.24770453726444    5.81026709829495
N         3.35005497466888    0.92135547877014    5.92659733712135
C         2.51592661524850    1.14305103197816    2.35020449872678
N         1.08699946530168    1.42896531949295    2.11840063317414
H         3.39105522051781   -2.50600291244639    0.32733292179438
H         4.76536672572824   -1.63192765330212    0.02329738519098
H         3.48152879582053   -1.61068016868382   -1.28155367893896
H         1.87255543455887   -0.47856850971079    0.12560267598608
H         3.28695997271956    0.48919878505034   -0.14355562303084
H         1.96873905186891   -2.39834181513163    1.87398696971486
H         1.02114435635952   -1.13934207361188    2.44935461555296
H         2.64668968533508   -3.71386062014741    4.96736729577023
H         3.16195815988222   -3.74605139226628    3.24787168153078
H         1.48376720199085   -3.79750076019749    3.69741497173767
H         3.71115567649939   -1.54328257214071    5.44522343694089
H         4.87390927370547   -2.28146847954358    3.34362519060121
H         5.48753195891693   -0.64464051567957    3.99900022134845
H         3.16671979479126    1.93034728624674    1.95971910434790
H         0.43874996756383    0.80577623558638    2.61345434208645
H         0.84831345577650    1.37970438257687    1.13144006464028
