32
 energy: -49.321714958301 gnorm: 0.140624003309 xtb: 6.4.1 (79825abcba525fcdf90b791dcacef51065a7a4e7)
C         3.73420107698132   -1.29637077763157   -0.53254528590403
C         3.17450521438036   -0.18250085098573    0.34401413115819
C         3.10553244197274   -0.40141504859170    1.87974554161889
C         2.38858181992165   -1.71608780931150    2.31241396257406
N         2.24708391936970   -1.66796266850351    3.78544281924271
C         1.65032150804371   -2.81074093210371    4.46210658111293
C         3.53395488841496   -1.22325748018965    4.39705594853794
C         4.77473896907530   -1.19497239691442    3.46182235871772
O         4.49067916760018   -0.32408960854854    2.32972213948253
C         3.34524837468390    0.22683571996643    4.70305569363529
C         2.79403280383977    1.09389940797792    3.80638611991779
O         2.82578139730498    2.31535578478826    4.39444842435985
N         3.45035545499901    2.20963264327168    5.64966500460438
N         3.76630032547538    0.92162613073951    5.79533074855173
C         2.27121378923074    0.85552575451065    2.43939396339665
N         0.79790660079308    0.78276313632681    2.40218735108905
H         3.05540512451565   -2.15257071542044   -0.61402241615378
H         4.68653913633473   -1.61653090815199   -0.10319670301989
H         3.89300116995385   -1.01159837085208   -1.57680355540298
H         2.20167336429446    0.14208545019001   -0.04175883106004
H         3.89278319980616    0.64198259640492    0.25504879205381
H         3.02443285459546   -2.50939667941548    1.89717050481853
H         1.39642941564757   -1.76599543467748    1.84963242488503
H         1.52150316678836   -2.39308614227522    5.46776804187081
H         2.34401068740417   -3.65682309205437    4.48965294457500
H         0.70247338582763   -3.18608589812607    4.06291275595951
H         3.81341875079836   -1.83808714016724    5.26084825789323
H         5.05944945748551   -2.20749400898437    3.15456498572254
H         5.66459628345391   -0.70664490397955    3.87499251161748
H         2.57538512697895    1.64593552581180    1.74760050801150
H         0.45531737317751    0.08699483843429    3.07465245640031
H         0.35432515713845    0.57534295573688    1.51128826499762
