32
 energy: -49.310454117526 gnorm: 0.151594296803 xtb: 6.4.1 (79825abcba525fcdf90b791dcacef51065a7a4e7)
C         3.36632499787952   -1.56151209151863   -0.43933107087093
C         2.90415332798028   -0.28056463458717    0.24469600162419
C         3.01195885373699   -0.28386458079171    1.79373398848999
C         2.14894978954295   -1.46392898830153    2.33433360673904
N         2.24269531733304   -1.73351785508978    3.78715338034552
C         2.13757919993265   -3.12393666390998    4.20623274919099
C         3.50381845405517   -1.21717727186308    4.39611235787155
C         4.68470912173885   -1.23330471084377    3.38604098872199
O         4.40145733192536   -0.59739596468727    2.10691387239102
C         3.36612862185115    0.24050359651765    4.69313804317593
C         3.09656858054343    1.23518945031981    3.80005810130623
O         3.07102073102168    2.38063958108134    4.52536646594616
N         3.39492135113883    2.07442056735083    5.85884203840106
N         3.53929419617078    0.75077548635974    5.94322585406582
C         2.55010848397220    1.12177085555213    2.42625067596097
N         1.09940307022234    1.36951328173897    2.53297597848089
H         3.29129299219876   -1.30664850761565   -1.50229652377194
H         2.67942635957610   -2.38217772935710   -0.21917507128800
H         4.32173935729689   -1.91560213914918   -0.04109525509635
H         1.86068954130159   -0.03885915212269    0.01374008395594
H         3.48280163439376    0.57178520122191   -0.13250015134639
H         2.41850540497138   -2.39650092548553    1.82079492813296
H         1.11335878916653   -1.20353095416289    2.08782182941704
H         1.46046815495832   -3.63143702250629    3.50884571364375
H         1.80237485602896   -3.31036052762909    5.23127064601482
H         3.13039174009814   -3.57496403134072    4.10849231254665
H         3.76375389296409   -1.69744952557109    5.34691456780779
H         4.73432575579305   -2.32101641526077    3.26320528699784
H         5.50602349304419   -0.73060334240328    3.90925546594189
H         3.02760424614243    1.91150574805897    1.83959696333394
H         0.72833045150272    0.86287954530686    3.34494740032569
H         0.65034872177494    1.04274488472967    1.68147059346340
