32
 energy: -49.315038158237 gnorm: 0.152541157650 xtb: 6.4.1 (79825abcba525fcdf90b791dcacef51065a7a4e7)
C         4.12890814268973    0.02134186819228   -0.23472786697420
C         2.96180036835258   -0.78234161425734    0.32587395478169
C         2.95886055878919   -0.62012842334516    1.87016339952916
C         2.09169085251393   -1.73770336054336    2.52485997501323
N         2.10804317783736   -1.61144963356155    3.99996821321298
C         1.75932422161144   -2.94067209596237    4.48111697967684
C         3.47047526991376   -1.22891820369721    4.47464572649911
C         4.50667428534950   -1.72019639552244    3.42586339402692
O         4.34333461682700   -0.87183441501438    2.25352393280204
C         3.35385008222303    0.25289699024693    4.62510698992690
C         2.85132775946974    1.09585972383142    3.67824927317354
O         3.03727305574437    2.34211852209223    4.17929248189786
N         3.68740317814903    2.28280175797327    5.42454392137044
N         3.84006080980029    0.97998485727983    5.66819166255749
C         2.39400579734707    0.82579001386852    2.29378248662327
N         0.94006330062352    1.07731026102089    2.28370255402817
H         4.04829904772091    0.07671111322890   -1.32601940730083
H         5.05535222486389   -0.43218017777539    0.12556314540434
H         4.03345174360175    1.03891163696868    0.15543616619463
H         3.14411935913004   -1.83794274400619    0.09555916701163
H         2.03354010512030   -0.42637422564440   -0.13805616094815
H         2.43397945547226   -2.72505159638362    2.18714025538186
H         1.10212054355476   -1.54990417855538    2.09299657317427
H         0.91714877524345   -3.38884435324546    3.94049991717650
H         1.49886982448069   -2.92459422903426    5.54400150520017
H         2.48703480396717   -3.75656483838728    4.42270497099606
H         3.57611591935395   -1.65821146651451    5.47804000402878
H         4.45690332214865   -2.80106361886533    3.25290078493242
H         5.50642730892257   -1.53350034418039    3.83410086457272
H         2.89843289460828    1.61299868479243    1.72659484806064
H         0.48504484917682    0.49514920193019    2.99624513935696
H         0.49509746166159    0.80793100549375    1.41024446397447
