32
 energy: -49.308431293769 gnorm: 0.141866275885 xtb: 6.4.1 (79825abcba525fcdf90b791dcacef51065a7a4e7)
C         3.51835148715211   -1.29639479644466   -0.55610028074257
C         3.11323599496333   -0.12312540237526    0.32800521003436
C         2.99312447397528   -0.38259629752014    1.85424237200619
C         2.12701274071634   -1.59034566363050    2.32411123743908
N         2.12054967174420   -1.71606105328771    3.79934196051455
C         1.85332283506261   -3.09816107387440    4.17127046801936
C         3.36770696467127   -1.15297294746831    4.39549703152219
C         4.62039711026638   -1.31952961578583    3.49104500533548
O         4.37841818701410   -0.55021366040579    2.27845400034700
C         3.41541156516332    0.29371599839374    4.76540505849753
C         2.95015585790820    1.17792053778999    3.83730262106824
O         3.12891681652675    2.42098466156524    4.34878791403193
N         3.80810132652616    2.27229329294003    5.57085097289092
N         4.01161955391093    0.97117425761781    5.78455656700700
C         2.33899001152420    0.93394529696835    2.50847532027631
N         0.88313460043244    0.96756540843141    2.74652506894100
H         3.71940708316322   -1.15026598206792   -1.62320094857886
H         2.80024156997897   -2.11784327594133   -0.49838502408343
H         4.49686047360840   -1.61770232132758   -0.18722390842712
H         2.15057807068933    0.30563041445494    0.02794344564182
H         3.80975758154626    0.69459792074850    0.10485204761686
H         2.50912452557430   -2.54577863084448    1.94043022945827
H         1.11589278203023   -1.44665378844401    1.92660268790073
H         1.32804560701366   -3.57850575000450    3.33716166042451
H         1.30984716250469   -3.25050174389949    5.10895113701815
H         2.74737068458291   -3.72364892985470    4.26126504343276
H         3.63862716907103   -1.77925044280783    5.25376946155007
H         4.82089118125559   -2.36600985332356    3.23541156824545
H         5.48505933106749   -0.93870995530505    4.04634224663758
H         2.51524437727939    1.78463028430248    1.84431001033227
H         0.68587756064547    0.24135456378077    3.44464949668283
H         0.20249116582373    0.87216984500472    1.99745027387071
