32
 energy: -49.319571909492 gnorm: 0.141446495174 xtb: 6.4.1 (79825abcba525fcdf90b791dcacef51065a7a4e7)
C         3.60686254759497   -1.35593294688849   -0.42237889865152
C         3.08182676015022   -0.11594838908345    0.29113200093124
C         2.97168180711249   -0.29162904352136    1.83001341976674
C         2.25482091052150   -1.59587539191636    2.29330225264540
N         2.22604860616650   -1.64128605022217    3.77291765025226
C         1.78830709971147   -2.95622863502005    4.21929165982233
C         3.53511717846518   -1.24665761444860    4.37164803940041
C         4.67557682991619   -1.29418463597110    3.31708651873558
O         4.36004204458468   -0.32672679682030    2.27533758886403
C         3.49999697215232    0.20451777249973    4.72502152706600
C         2.93827710160794    1.07264490988189    3.83593187377985
O         3.00037029587037    2.32423038721179    4.35406232198778
N         3.71571435253407    2.20013206576414    5.55810604602599
N         3.97975612500915    0.91208069002833    5.78439356179574
C         2.22691225751737    0.94481378848897    2.54115446615390
N         0.77158337000057    0.93129785446642    2.78435799167222
H         3.96204903300612   -1.03975981339424   -1.40947459467070
H         2.78707659656223   -2.07601502674641   -0.36560488422503
H         4.42610184533743   -1.86587717757665    0.09297727054044
H         2.10409837068714    0.14602763613388   -0.12838511434133
H         3.84468362292614    0.66179798945381    0.16162899939729
H         2.86659173755962   -2.44340367591987    1.95639737781623
H         1.21289546118339   -1.56334655828532    1.95513491149999
H         0.98987544343758   -3.32959209067396    3.56699473384330
H         1.38100480004380   -2.88970356291439    5.23294729834933
H         2.61023524519241   -3.67374597659879    4.31016853278069
H         3.70712559305436   -1.94102585324793    5.20262250511143
H         4.71328813513070   -2.31218984159825    2.91346488174288
H         5.66393107620158   -0.96960701888461    3.66179597100045
H         2.38158154713485    1.79787587483540    1.87466480162543
H         0.59549381693723    0.32292373103941    3.59215971123214
H         0.28746333743522    0.60802851298081    1.95092320623198
