32
 energy: -49.317025821097 gnorm: 0.144596056928 xtb: 6.4.1 (79825abcba525fcdf90b791dcacef51065a7a4e7)
C         3.90534545352566   -1.20982563093351   -0.53078129896663
C         3.04663823929411   -0.28198440966771    0.32013271978215
C         3.06842082208875   -0.41786292057200    1.86681115268750
C         2.32833685831659   -1.71659861767970    2.30856440408634
N         2.20361274048812   -1.68765629967698    3.78360946630574
C         1.78403094327330   -2.97200181172661    4.32614896315455
C         3.43160805006532   -1.12831526553756    4.42160267585147
C         4.71233904192259   -1.18671401150409    3.54335171393778
O         4.46570598725732   -0.52096080387755    2.27184768263496
C         3.26464377937029    0.33624086722054    4.66494306714991
C         2.81321580754036    1.25896904721493    3.76803734673873
O         2.94698381211699    2.48386729011578    4.33417455363009
N         3.50213307517284    2.27157509061660    5.60837238704715
N         3.71699708705801    0.96652376437610    5.78351502343256
C         2.29458411173403    0.87426788479345    2.43317575417991
N         0.85110544209597    0.70859994349943    2.69053986424715
H         3.31784775815439   -2.11656527271465   -0.71285403738670
H         4.82528787227073   -1.45404979942983    0.00573616972334
H         4.22464435480578   -0.83054840169738   -1.50596595808332
H         1.99982482568358   -0.33489769615982    0.00081984183222
H         3.36219849970763    0.75329882508234    0.14062953185452
H         2.93397865412580   -2.58183362363464    2.00750123817726
H         1.28593940300039   -1.75689793533815    1.97269624119841
H         1.39704035068073   -2.80240962952369    5.33800934541934
H         2.56637518359881   -3.72782503956700    4.20578601598505
H         0.97136047719496   -3.26072953490662    3.65171687821460
H         3.64565838643719   -1.73757056822015    5.30774213671076
H         4.96517986945804   -2.21952824175089    3.27871337711719
H         5.63702935128092   -0.77097075208233    3.95943430564427
H         2.51352101863114    1.74245983961633    1.80535782205103
H         0.53836163498452   -0.13506142193350    3.18460163396829
H         0.39869970697519    0.73279916273164    1.78046719238612
