32
 energy: -49.308749135340 gnorm: 0.150270948693 xtb: 6.4.1 (79825abcba525fcdf90b791dcacef51065a7a4e7)
C         3.63907305872151   -1.23623983504237   -0.49975751453965
C         2.87108839987518   -0.16645621943536    0.26710927378710
C         3.03264435845274   -0.39003571446544    1.79520073563179
C         2.20587805993727   -1.59110838590158    2.34607871563904
N         2.25727828982308   -1.78214156547426    3.81339464153334
C         1.89030012974372   -3.11753062390896    4.26284371005604
C         3.48920476750536   -1.21597741221533    4.43764259416219
C         4.65593504248597   -1.38832460343846    3.42569203164714
O         4.41045580144223   -0.60776021212428    2.22101910032048
C         3.33120079480343    0.23812088627816    4.74202583331322
C         2.96769437213639    1.18736416603723    3.83293031713910
O         2.99842279046105    2.41643793804811    4.40495685793012
N         3.57007678864131    2.23116090653713    5.67606776260920
N         3.82118770079435    0.92756268599237    5.80864015057377
C         2.44799264571221    0.95147731637779    2.46431904617170
N         1.00506031333936    1.19009034288244    2.66008149122566
H         3.34648240260333   -1.30499423197675   -1.55339139024581
H         3.53351212570580   -2.24596391359333   -0.09589532383986
H         4.69248962558808   -0.95866359682282   -0.60002265105996
H         1.79223806103591   -0.17724386227453    0.07594329532118
H         3.28938749126225    0.82378460773915    0.04788330887574
H         2.63380637544498   -2.42856702771049    1.77896936875257
H         1.15129086635168   -1.40004245775819    2.11724781860873
H         0.85153548709853   -3.29236040472873    3.95823375859373
H         1.84162221007756   -3.23314065565009    5.35008024317904
H         2.44861302515474   -3.95659396842669    3.83515804464390
H         3.70901448746295   -1.73695829712017    5.37706545998767
H         4.84959163080670   -2.42925576194648    3.14351015061381
H         5.64042745866930   -0.94789037537651    3.62014439680340
H         2.78062996516174    1.78203764694483    1.83553613285219
H         0.59595149650218    0.59002048936493    3.38548921898010
H         0.46659243864493    0.81059503829538    1.88579182934861
