32
 energy: -49.312411542454 gnorm: 0.148548632958 xtb: 6.4.1 (79825abcba525fcdf90b791dcacef51065a7a4e7)
C         3.72878340100434    0.11129806635876   -0.61891202337184
C         3.04393851870281   -0.92233263595283    0.26704347235070
C         3.15556163413845   -0.66462825774122    1.79422399794247
C         2.27285754597036   -1.82110467986594    2.35367052815146
N         2.19722971493491   -1.54818973716575    3.80692534971005
C         1.27809233153975   -2.44662969705619    4.49098199986171
C         3.48668416647010   -1.29865823668314    4.51608787196207
C         4.67527647310792   -1.56024365775838    3.54973987782937
O         4.50360049632978   -0.76526093407038    2.34172185907468
C         3.41379081862066    0.17544421321968    4.74787403532479
C         3.01298181460007    1.00962509025881    3.74630087492714
O         3.08439812692879    2.25604730521742    4.27555725345189
N         3.57742253612454    2.19246087366790    5.59074640325416
N         3.66207224404698    0.89236502826270    5.87812362893286
C         2.58637553716093    0.73270297602590    2.35340801258851
N         1.11380695101548    0.78667757893753    2.43048805887566
H         3.83676029124870   -0.24707495557847   -1.64866469739632
H         4.74109115721405    0.32641943536261   -0.26856034745095
H         3.17832413946757    1.05432871380916   -0.68581437575177
H         3.38855447106181   -1.92322226668095   -0.01586754270419
H         1.96554957440422   -0.84902862889277    0.07912099301366
H         2.83559602713631   -2.73087384269941    2.10523923411315
H         1.25942290549507   -1.96935751168341    1.96380485292564
H         0.33505417484594   -2.57651398133978    3.94674513190257
H         1.14652850585849   -2.18191041289708    5.54475292531726
H         1.61712780038489   -3.48757657302574    4.50282144015631
H         3.58941572177708   -1.93213603435612    5.40513501824241
H         4.76577560119737   -2.63261341111606    3.34358413834247
H         5.60873022127423   -1.18629025911062    3.98544885551290
H         3.04150032891832    1.53427004396017    1.76502237511757
H         0.85338804697234    0.11744538009389    3.16395958982740
H         0.73451334086550    0.56990926508786    1.51253562235354
