32
 energy: -49.313710087873 gnorm: 0.149348172018 xtb: 6.4.1 (79825abcba525fcdf90b791dcacef51065a7a4e7)
C         3.72332952106051   -1.50100779054644   -0.30085932697306
C         3.13054875923797   -0.22575690482279    0.28622518781091
C         2.97334849504727   -0.29810519283663    1.82934067795969
C         2.21970344882522   -1.56048082815567    2.34703895918432
N         2.20102415286551   -1.72967019805288    3.81781349473650
C         2.12295564449635   -3.10978695399356    4.27511475256417
C         3.43261208610504   -1.17788918807857    4.45546473606111
C         4.64333832985447   -1.24280550384212    3.48338713023466
O         4.34240361659032   -0.42673591646026    2.31537752986744
C         3.10843039092802    0.25978829368328    4.70042590078792
C         2.83204363854117    1.23192410483827    3.78488415214396
O         3.15207479380256    2.42631605652187    4.34147093287630
N         3.54559762604573    2.19321004963262    5.67099722824500
N         3.56443824244926    0.86860870202868    5.82935363097958
C         2.29054572993509    1.03444729073251    2.41864398757838
N         0.81569025990079    1.06951234241101    2.38890197317065
H         3.00875667275455   -2.32084932470772   -0.43399949139349
H         4.57116136913708   -1.77056900544250    0.33341853238218
H         4.09451163393412   -1.29015217295480   -1.30810898565389
H         2.24052853367279    0.01165842973184   -0.30713541351092
H         3.74066465142044    0.66135161996982    0.07549287740782
H         2.75402778643850   -2.44548496346337    1.97644779339452
H         1.20027746700098   -1.52594188036444    1.94628760914925
H         1.77419194433147   -3.05079484482941    5.31303019942453
H         3.06625376970140   -3.64539495975086    4.12974895586500
H         1.37364058855094   -3.63080205165060    3.67036204575855
H         3.65488504467416   -1.67093225767535    5.40927603031937
H         4.89620261095363   -2.21748164145833    3.05126070380318
H         5.51460053935959   -0.78260069256382    3.96310897284085
H         2.55661951077280    1.87908288594784    1.77705109426669
H         0.46986932415116    0.44434983595430    3.12595688601872
H         0.37208701064439    0.64607324964309    1.57809724739914
