32
 energy: -49.310794904999 gnorm: 0.148006002069 xtb: 6.4.1 (79825abcba525fcdf90b791dcacef51065a7a4e7)
C         3.26958360585120   -1.72639333150096   -0.26318820045612
C         2.91529070317025   -0.38138597412948    0.35951063297661
C         3.05703889724885   -0.34309402182631    1.90534141601969
C         2.17943900371815   -1.46771622683944    2.53353559273780
N         2.50798346027115   -1.81255345829769    3.93542628158942
C         2.37818206308746   -3.22799428432042    4.25105301748910
C         3.72997464973647   -1.09762704334304    4.40817140750347
C         4.88614381891226   -1.18330521261686    3.37330952396535
O         4.47196111669432   -0.64853640435400    2.08363797541717
C         3.36060699930071    0.32920589496731    4.65257181421829
C         2.82704075025159    1.29764325671507    3.85439233232276
O         2.38199710633981    2.33912150763396    4.60007330896219
N         2.64479133417737    1.96921205271737    5.93084188000467
N         3.29160147924215    0.80232591870471    5.92712230139141
C         2.68258413637061    1.14605130945107    2.38640683130907
N         1.36934946524064    1.66113167192331    1.95348683979827
H         3.06679107976212   -2.59625743080286    0.37139232472661
H         4.36047136036000   -1.70741329400913   -0.32144763292364
H         2.88569429589080   -1.75679163945901   -1.28714770615177
H         1.87780678223930   -0.14805412836139    0.09538524815591
H         3.55811114483690    0.39680793285962   -0.07038141446195
H         2.33085489170561   -2.41478110707369    1.99854590412797
H         1.15247064995265   -1.12449300782913    2.36454525277500
H         2.71715977379549   -3.43656869654902    5.27280420145498
H         2.99933819837191   -3.89154384536553    3.64139283906221
H         1.32888988857959   -3.44711209821992    4.02827749057902
H         3.98496238037902   -1.53964703821349    5.37866215801363
H         5.10678379512696   -2.20782043885650    3.05338185005924
H         5.78683602888793   -0.74545385744432    3.81834781259983
H         3.44616361140032    1.76029447086524    1.90112576386869
H         0.61951098881693    1.06358624027741    2.32002733926671
H         1.29527234876231    1.75273792953026    0.94372959822026
