32
 energy: -49.317230376921 gnorm: 0.142188419776 xtb: 6.4.1 (79825abcba525fcdf90b791dcacef51065a7a4e7)
C         3.39324399344210   -1.67479576821504   -0.36103925798222
C         3.25447957808661   -0.29919902423109    0.27989764970940
C         3.19486938531902   -0.29195388434597    1.83152445995392
C         2.50309080577237   -1.60534319296251    2.30695640916438
N         2.37129959226194   -1.71674993516854    3.77745676742330
C         2.14701578307041   -3.07859878467153    4.24114401484947
C         3.54628812082378   -1.08796031587902    4.44968870508952
C         4.76894997785030   -1.09941549565722    3.49053606012071
O         4.56409541429837   -0.24204494366933    2.33134321747156
C         3.20872406674278    0.34112652678828    4.72496595996561
C         2.83009862455878    1.24186740243735    3.77367052363716
O         2.75162803051695    2.44465610596117    4.39489723131827
N         3.02819097799764    2.24780544923791    5.75930243304466
N         3.20849663354213    0.93937839295848    5.94774063453074
C         2.40356636433799    0.99972715805827    2.37428937282863
N         0.93087913134463    0.91147363226609    2.34752285206371
H         2.66336000902701   -2.36415779505486    0.07774333975323
H         4.42530891790290   -1.99660511137846   -0.20270027672190
H         3.08020192561585   -1.54854055527741   -1.40164120561845
H         2.40119882361118    0.27853077983713   -0.09255245569443
H         4.17706480055621    0.24735639961795    0.04811170217632
H         3.10943258374764   -2.40194788789089    1.85546638875395
H         1.49065391024604   -1.60575633577443    1.88743849719662
H         1.19935746021570   -3.42143686236238    3.80895144792896
H         2.17013642037076   -3.13531776807747    5.33387769411412
H         2.84724225214718   -3.85948785513616    3.92721605115050
H         3.83817894130942   -1.65662443992432    5.34057229677228
H         4.93295944990774   -2.15389469058178    3.24185616438593
H         5.55761889049110   -0.63650786893555    4.09447084979661
H         2.57384971530937    1.93826883494067    1.83950989579108
H         0.67699809758493    0.09254483012399    2.91194314246549
H         0.59580057335568    0.66668835571779    1.41946501697818
