32
 energy: -49.319645286479 gnorm: 0.139734315689 xtb: 6.4.1 (79825abcba525fcdf90b791dcacef51065a7a4e7)
C         3.37313988952367   -1.56738721116578   -0.36970548892935
C         3.08905529569453   -0.22555607349459    0.29445355085335
C         3.09485961374506   -0.31534006886673    1.84463314428474
C         2.39058157646328   -1.61447031534612    2.34045333916587
N         2.35225568226078   -1.72463012401230    3.81644373041618
C         2.10128111081166   -3.08336942251726    4.27555228632087
C         3.57868892383591   -1.13483863293127    4.42953239809689
C         4.80447649159739   -1.13286896686165    3.47431096259441
O         4.48955174759526   -0.38417935720324    2.26556616982969
C         3.26407254348116    0.30359606362229    4.68239289607626
C         2.73230538124398    1.25229149383028    3.85968089694965
O         2.67255927290057    2.44361030383229    4.50463889079397
N         3.18030056368741    2.19629771410348    5.79222347666213
N         3.53876124435897    0.91342606409273    5.86803059585529
C         2.40885348495618    1.01647201465704    2.43188633060876
N         0.93969461915153    0.94657446175349    2.31356734985180
H         2.55389072421655   -2.28594433050203   -0.25574376827885
H         4.36343785462053   -1.96308385534069   -0.13195646127315
H         3.44255591704600   -1.38087386640866   -1.44542957821293
H         2.19177250823404    0.27683139376182   -0.08379145397218
H         3.94906315356020    0.43994028747316    0.14915341169941
H         3.04113074937435   -2.38248322546331    1.90111909505797
H         1.39786216818764   -1.75089196205482    1.89669527338312
H         2.25656949067119   -3.12336058386712    5.36029690397336
H         2.83566433348553   -3.81450373008424    3.92349773469369
H         1.10322534054491   -3.38899661574537    3.94520047776375
H         3.80511483486958   -1.55971256906264    5.41465480947622
H         5.07881426761283   -2.14668283562997    3.16192115858646
H         5.76267348465821   -0.69152243468788    3.77111242591985
H         2.89148198043332    1.87316380595931    1.95335220570113
H         0.65738164832598    0.03497980140289    2.69167419871526
H         0.60999540763138    0.89550925612338    1.35326552693106
