32
 energy: -49.314770787639 gnorm: 0.150258924430 xtb: 6.4.1 (79825abcba525fcdf90b791dcacef51065a7a4e7)
C         2.87498799482167   -1.37479906327958   -0.52915025033787
C         3.17472144186058   -0.13313493552528    0.30196474797923
C         3.15493433670669   -0.36171889082464    1.83770869809542
C         2.45123771427971   -1.68491931613844    2.26612008609277
N         2.44265690517296   -1.70024087446282    3.74660761144434
C         1.89927035713464   -2.91975943668631    4.32750942230683
C         3.70173031232264   -1.21476406653534    4.38450778204828
C         4.82549083833454   -1.27701173133515    3.31292272339973
O         4.55271988099665   -0.31779550476067    2.25166029631344
C         3.49008815120974    0.21028976449748    4.78003961078173
C         2.92064747176509    1.10098865081938    3.91861801910320
O         2.79330601140482    2.32667976929151    4.48452115689354
N         3.30129491523278    2.15900592817946    5.78477942336064
N         3.70996360133716    0.89779043031531    5.93419768674003
C         2.50172897144487    0.94906492706220    2.50431403911114
N         1.02616277405292    0.95289799685470    2.50590150554536
H         2.83359558204245   -1.04964389412336   -1.57463654269659
H         1.89712984126803   -1.81657311781782   -0.32319003707054
H         3.61981481107842   -2.17477959129878   -0.48384799027420
H         2.43605471935460    0.64383743723200    0.07554862290234
H         4.18064974843835    0.23098853505456    0.05879116850987
H         2.91026870165219   -2.54878848632123    1.76702767671588
H         1.37587483338116   -1.54599062316011    2.10700562351063
H         1.36755717674921   -3.51971560033051    3.57936615169353
H         1.18397921858027   -2.43659102722638    5.00035812728058
H         2.58226566966700   -3.65109693127492    4.77171487829969
H         4.01992328844517   -1.78841111411500    5.26310609945156
H         4.88845525782996   -2.27573795228665    2.86655002566162
H         5.77106434021754   -0.99276712455997    3.78843834592493
H         2.84833569744835    1.81375482782781    1.93158273822697
H         0.59345681924467    0.27442039254720    3.14316433776132
H         0.58106604304656    0.76285771817149    1.61188673731545
