32
 energy: -49.314294616016 gnorm: 0.147395906704 xtb: 6.4.1 (79825abcba525fcdf90b791dcacef51065a7a4e7)
C         3.77190063929748   -1.57479793715881   -0.28469238188984
C         3.11568910328458   -0.33593987050632    0.31275151104823
C         3.00405097562581   -0.36445133088711    1.86125907501429
C         2.30735805344747   -1.66371843341755    2.36733081494844
N         2.36788017588528   -1.70326885761768    3.84615620802160
C         2.08059132899527   -3.06260076666584    4.28161374885769
C         3.63672532592537   -1.11535609256574    4.36794236188252
C         4.79399651123418   -1.17334874932740    3.33239067425885
O         4.42230759242542   -0.33630019129057    2.20014742738190
C         3.34879094668946    0.31506146876832    4.68890292905014
C         2.82707786496789    1.20238730513579    3.79440714282367
O         2.55652880596996    2.37621648089781    4.41707014838428
N         3.04185610931059    2.24278656666237    5.72988874697645
N         3.50403726578506    0.99764306975690    5.85640633780987
C         2.36493787278982    1.01110040144327    2.39846113212061
N         0.88944796480763    1.00812503274441    2.41374223263452
H         2.99001925026506   -2.34160010720730   -0.25068163515202
H         4.68849946730088   -1.83774161508241    0.24869088219788
H         4.04505358672901   -1.28977927284786   -1.30495703325003
H         2.30919906288674    0.06040461957393   -0.31419642376625
H         3.87549302693600    0.45541960879771    0.32044776329639
H         2.77089417921795   -2.54789169982804    1.90967971761591
H         1.25330984361372   -1.62180976925974    2.07026187141951
H         2.33778119012966   -3.81769771189350    3.52923974699061
H         1.02372399779494   -3.19902035988289    4.53109248922863
H         2.70913277487925   -3.20437418201338    5.16676434126574
H         3.85546016349783   -1.60412982708791    5.32476420179307
H         4.88044038018105   -2.17360365400440    2.89343195829951
H         5.72321669814055   -0.78400566478305    3.76364600589793
H         2.75134907383239    1.85684859857430    1.82292453498019
H         0.47115382853232    0.49627205525488    3.19904903167196
H         0.47407028287519    0.69639033628061    1.53980191585989
