32
 energy: -49.317627296073 gnorm: 0.150718199985 xtb: 6.4.1 (79825abcba525fcdf90b791dcacef51065a7a4e7)
C         3.66959136123083   -1.50505759591084   -0.37955014463110
C         2.92528256670740   -0.34201375558707    0.26516338433353
C         2.99164750802867   -0.35926734938202    1.81643694084143
C         2.21770602582229   -1.58724542559875    2.38447660021995
N         2.34412590891208   -1.64250602507050    3.85862584103350
C         2.19766446061758   -3.01366636676853    4.32596913889933
C         3.64206326672381   -1.12430606286604    4.38274189834852
C         4.79942300897364   -1.16229572601815    3.34636250502992
O         4.40945008195476   -0.42640031890428    2.15172583697281
C         3.28720995647861    0.27841021657657    4.75487419587547
C         2.84428340451640    1.18927833450101    3.84175333588931
O         2.72539136019772    2.36538220779352    4.50615177677384
N         3.08415635954384    2.13895882917619    5.84662144405984
N         3.47235828334110    0.86827099697620    5.96766750630354
C         2.43180038173448    1.01998239967680    2.42753061242641
N         0.96811955964449    1.10610013429872    2.26159387631206
H         3.02944752654394   -2.39367502119525   -0.41204239077210
H         4.59680425799716   -1.79757733490961    0.11894653642554
H         3.88078761031974   -1.22278177318735   -1.41516814030695
H         1.91991837772843   -0.12091397189014   -0.11025183533191
H         3.48784637518866    0.55876495498258   -0.01002878404328
H         2.74545585046482   -2.44825024965206    1.95294044810083
H         1.15533175155505   -1.58839692892248    2.11543479516224
H         2.16494101522195   -2.90337210190212    5.41645023218478
H         2.96288568043239   -3.65117053859872    3.87226943574115
H         1.22002593830372   -3.35036253622413    3.96608828061433
H         3.93533409012004   -1.74295814638577    5.23919653392218
H         4.87970793550550   -2.22333293025782    3.08478736443306
H         5.73484385484784   -0.80114070706529    3.78860027287253
H         2.95675544745363    1.71210521993627    1.76327601353922
H         0.56449447747209    0.67184137056116    3.09955350835815
H         0.80472087002332    0.64250065311791    1.37172579095510
