32
 energy: -49.314192714536 gnorm: 0.156630420481 xtb: 6.4.1 (79825abcba525fcdf90b791dcacef51065a7a4e7)
C         3.80539117046496   -1.64881678814218   -0.22980845201953
C         2.92892876089998   -0.52095699025275    0.30129230270621
C         3.01049523916659   -0.34039154904611    1.84138796966636
C         2.19793641774303   -1.49160852264155    2.50774543452752
N         2.44339450449751   -1.67140681096244    3.95673632715637
C         2.18503527255425   -3.07835352453728    4.22820058755716
C         3.73267061897829   -1.09021100660423    4.43407140028260
C         4.81288436420867   -1.18324856463597    3.32074785425467
O         4.42615896130580   -0.34830453179415    2.19199206537646
C         3.30948097242831    0.31641184891961    4.70672311557935
C         2.69747256824931    1.19357400853801    3.86074046945005
O         2.41441176454491    2.31265755668561    4.57229477440838
N         2.96780297308110    2.09670117814546    5.84664159421737
N         3.47423311093393    0.86601360213543    5.94117761826318
C         2.47781080416440    1.07175169260317    2.39932426467316
N         1.06668305690500    1.35405113593861    2.07322868948849
H         3.49894718433669   -2.55965471853206    0.29644923415061
H         4.86256037374559   -1.43597951926461   -0.05406981727347
H         3.55338771111508   -1.74521733921329   -1.28999207767945
H         1.91878334250746   -0.79514100298972   -0.02275740947847
H         3.33300696130740    0.38883359189205   -0.15980741856558
H         2.52609810772495   -2.39833248785583    1.98216557285964
H         1.11371309893225   -1.40004807480403    2.37697694605456
H         1.19369826586062   -3.44331070081922    3.93419062386457
H         2.37441156129633   -3.35628141055631    5.26969528969028
H         2.84048806510728   -3.78386586802776    3.70734591439876
H         4.09700277393454   -1.63646759070729    5.31220495890514
H         5.01350042192444   -2.23924292224541    3.10791862181268
H         5.70619243483271   -0.62103357864273    3.61559418206976
H         3.02248286908649    1.90333833350473    1.94364674705470
H         0.47351987924009    0.51654302727231    2.05303375905400
H         0.94196085199590    1.73194271101955    1.13774424538584
