32
 energy: -49.317456078597 gnorm: 0.149251591868 xtb: 6.4.1 (79825abcba525fcdf90b791dcacef51065a7a4e7)
C         3.70322812110798   -1.42579495598515   -0.42918059088196
C         3.13560017857707   -0.18782384488421    0.25459432643534
C         3.13242784538124   -0.32508554082056    1.80130076214073
C         2.58451530474441   -1.69242194335626    2.31097482179106
N         2.35390380812068   -1.68327874468892    3.77346805145001
C         1.89648570023241   -2.96765358401239    4.28443902629414
C         3.55120038981689   -1.13520133646395    4.47629255275273
C         4.74262932258602   -1.11607075615644    3.47872643314631
O         4.51903116733641   -0.36422813263692    2.25173244838053
C         3.23544342356030    0.29369867362591    4.77722210134392
C         2.74183472079253    1.15720540395313    3.84429071831908
O         2.68536492737996    2.41693157417242    4.34297105813003
N         3.14945629162048    2.28713301508564    5.66380804503901
N         3.58109077203699    1.04032924220682    5.86172842875422
C         2.30765017006270    0.89425228725134    2.45103240057771
N         0.84333149842583    0.73151983963199    2.53228389010834
H         2.95516825493339   -2.19261420879958   -0.65912726459378
H         4.55143284004809   -1.78516044318100    0.15835298004932
H         4.11103810110478   -1.14171968670065   -1.40374736161061
H         2.10279792375220   -0.15921581151550   -0.11020690693017
H         3.78573722784819    0.66997168693523    0.04218036021107
H         3.22635145067277   -2.54138045754480    2.04007182184121
H         1.56934763672877   -1.84071115210652    1.92565827741701
H         0.84582373393466   -3.11649598723537    4.00814202535398
H         1.93112037345293   -2.87319101380338    5.37425358247635
H         2.48777058467761   -3.84364406972760    3.99864456637091
H         3.74141253624451   -1.80344678331733    5.32453784781646
H         5.06882056346903   -2.09355377144170    3.10617657187523
H         5.65827280585781   -0.62937895097696    3.83333530587298
H         2.53490551587029    1.77046958247784    1.83748186470134
H         0.53232397097552   -0.07507987593563    3.08576509124225
H         0.37899741696119    0.57051400140439    1.64236265925856
