32
 energy: -49.319744855236 gnorm: 0.148253812261 xtb: 6.4.1 (79825abcba525fcdf90b791dcacef51065a7a4e7)
C         3.72787603615100   -1.42098823974526   -0.41026401337156
C         2.88113759597889   -0.40877306763030    0.35182295716285
C         3.02203959690448   -0.41254805274725    1.89820066788281
C         2.21535511920899   -1.63559966755579    2.43016826970443
N         2.28086225145892   -1.75765213774684    3.90426586113386
C         2.01748700817615   -3.14131471201727    4.27311914592233
C         3.52598945197128   -1.16154473552208    4.47187878404405
C         4.65045004174150   -1.33025058173992    3.41257063507068
O         4.40467730905808   -0.35559324735979    2.35880759019308
C         3.29914298245576    0.28705276748782    4.75844854057759
C         2.87156920664418    1.17077594081738    3.81194529818489
O         2.86881452066481    2.38247999564844    4.42067071502899
N         3.20939386963493    2.20850756507336    5.77365929674844
N         3.58505709875749    0.93671633386808    5.92003092017071
C         2.52965840900588    1.04337444569665    2.37469265640914
N         1.09620605681584    1.34917062795822    2.20435219451111
H         3.47856832177703   -2.42334324470473   -0.04473574996194
H         4.79879552677406   -1.22830795156086   -0.31128802525580
H         3.63382573516690   -1.32824207867356   -1.49623860745948
H         1.80271863863997   -0.50865138952570    0.18564313182029
H         3.22983026741941    0.56207676104854   -0.02164067320803
H         2.54262619784417   -2.58645540267964    1.98876183442318
H         1.16802910750074   -1.42784151667554    2.18324986827752
H         1.72219102541428   -3.23696010757973    5.32480203524263
H         2.88882894747293   -3.78080441082991    4.10097196566110
H         1.18523897815412   -3.40083617346078    3.61079939799793
H         3.83901206270634   -1.71546681145347    5.36487368687048
H         4.73021174903677   -2.33584462278810    2.98468529806020
H         5.65084785714908   -1.14727608284912    3.82091350027229
H         3.10064881417670    1.75974218409994    1.77750489831432
H         0.47686541178457    0.59662215804547    2.52646737437475
H         0.97493037724684    1.47208913282640    1.20251784103495
