32
 energy: -49.317355535067 gnorm: 0.139603588194 xtb: 6.4.1 (79825abcba525fcdf90b791dcacef51065a7a4e7)
C         3.71444846761163   -1.44503799330260   -0.32637522179649
C         2.92401069883493   -0.30846076748316    0.31058822967409
C         3.07584093116035   -0.36055684180635    1.85505746794891
C         2.31409839983513   -1.61416696623922    2.38211971494174
N         2.31189425854040   -1.61057721934970    3.86270539955643
C         1.89916365578454   -2.91657269880896    4.35663925422031
C         3.63603392310905   -1.13988059383905    4.36566570759764
C         4.74681811487001   -1.37720571762601    3.30507987487116
O         4.49144502682186   -0.48405546777258    2.18354301534105
C         3.44065227271822    0.31162392124073    4.66058425980808
C         2.88865680280344    1.23386832721554    3.82128655251132
O         2.78238673859638    2.37764884439482    4.54187917612996
N         3.16338766959124    2.11408177532213    5.86936156455931
N         3.55057401382422    0.83801710373997    5.91114841465477
C         2.46436397297635    1.01767713618790    2.41698378972530
N         1.00155680144629    1.07141587594135    2.23091889273269
H         3.33705354875958   -2.43579530758743   -0.04987237633204
H         4.78127036243566   -1.33181980275474   -0.11934096808438
H         3.71307077694068   -1.38928210328390   -1.41893071778736
H         1.85044755193114   -0.23767148486311    0.10315171896351
H         3.27864847756593    0.63386561719284   -0.12514572758532
H         2.77391395523000   -2.56186552289506    2.07145955329575
H         1.29675696712279   -1.57901652903673    1.97615816598987
H         1.54285485532808   -2.77322446755995    5.38371275978180
H         2.74646913535326   -3.58676974359028    4.18134564070123
H         1.04943465121484   -3.28283707807699    3.77143275598952
H         3.74936900335438   -1.55610107654329    5.37371749298726
H         4.83974937046081   -2.39700195651313    2.91514836734176
H         5.65734592303748   -1.00914266205868    3.79138025146562
H         2.78131053014796    1.87752944490627    1.82028882077810
H         0.51396852459465    0.45433800365203    2.89057243406390
H         0.72363937105303    0.87789387153159    1.27237836081773
