32
 energy: -49.308506882763 gnorm: 0.157999380257 xtb: 6.4.1 (79825abcba525fcdf90b791dcacef51065a7a4e7)
C         3.46944167558553   -1.56261654685966   -0.40331214753639
C         3.06455258104564   -0.28096428295442    0.31484827222579
C         3.09884559907959   -0.40797143058857    1.86205375827210
C         2.31854001787921   -1.65015361762877    2.38901792159836
N         2.41493809661760   -1.79987606182283    3.85886223025778
C         2.38269999442018   -3.17036110524699    4.34944640831613
C         3.57787001300233   -1.09194746018142    4.47066012668397
C         4.77744750493053   -1.15168579700358    3.48453020903239
O         4.51311165028637   -0.51423398901019    2.20212642995248
C         3.30583753680812    0.34933958205720    4.75474863785484
C         2.75165654677159    1.17225229761332    3.81914590124000
O         2.55040529795375    2.38647983589598    4.38829471027379
N         2.88757623789953    2.19637531862139    5.73996583772254
N         3.25071588002006    0.93561593905015    5.98207292473463
C         2.52424838423271    1.00911475201670    2.36295189782578
N         1.09945469139476    1.31102666559455    2.12604484105532
H         2.63734123501587   -2.18694132552978   -0.74727178314002
H         4.19252266508813   -2.08781434945852    0.22526692228641
H         4.00152042158423   -1.28093031536090   -1.31673056446244
H         2.00587379767654   -0.21594974276639    0.03998247959047
H         3.59699380055153    0.53175086392587   -0.19467256439314
H         2.59117690319905   -2.53879811928155    1.80416520239903
H         1.22856770436067   -1.57175635933087    2.30632486163597
H         1.45041040525592   -3.58033331967189    3.94306780808416
H         2.24054473939710   -3.11739966922977    5.43333084550230
H         3.30291919357176   -3.66982797178172    4.02946969889757
H         3.82664337395928   -1.60109529724478    5.40934698574444
H         5.09663943467504   -2.18624483599689    3.31579587433545
H         5.63395523274636   -0.60398894755035    3.89372701845255
H         3.12208568066306    1.81364640914239    1.92572726002723
H         0.58248078769665    0.87502104326228    2.89825420864621
H         0.77742480306457    0.96239138282173    1.22702370262169
