32
 energy: -49.318080411347 gnorm: 0.147046948815 xtb: 6.4.1 (79825abcba525fcdf90b791dcacef51065a7a4e7)
C         3.63451670458124   -1.52953144431704   -0.50483018506878
C         3.30994849627365   -0.26663832296197    0.28388936229075
C         3.15077921620542   -0.35752262412191    1.82582217895165
C         2.54724587909648   -1.73495108554803    2.23572822725731
N         2.45671521681200   -1.69915861079606    3.71311605446359
C         1.89169847458417   -2.90674003777488    4.29830368151920
C         3.59925789837684   -1.12398514699730    4.48229868600573
C         4.80652437461216   -1.00758009117019    3.51072029619033
O         4.47712569979333   -0.13689645879749    2.39081662370344
C         3.27730888885653    0.30729289777622    4.76480228004017
C         2.73270231457156    1.12074729459383    3.81540773390147
O         2.56361413738121    2.33019738786138    4.40483168867297
N         3.11513695234361    2.26259440634844    5.69637774838004
N         3.49956713281262    1.00355303103233    5.91323876499680
C         2.30705247019479    0.87917056110859    2.41566054735471
N         0.84379106879087    0.69694291210258    2.47017645358220
H         2.76855014041981   -2.17137339125681   -0.30830632252353
H         4.49651142778048   -2.15627989791157   -0.26411881484809
H         3.78274489464430   -1.20658774655880   -1.53949143388616
H         2.38056418012282    0.13283054748817   -0.13711927008531
H         4.08240686012777    0.46290157132585    0.01059343603396
H         3.16277115319767   -2.57404264935519    1.88483420999513
H         1.53607078820339   -1.84025235685742    1.82650885822663
H         0.86892706910578   -2.96924341299275    3.90789794310367
H         1.81780707789655   -2.71908235680749    5.37400956984616
H         2.35866780141318   -3.85489867838404    4.01266324986034
H         3.92825945224256   -1.66622318108980    5.37671950897148
H         5.13447418262743   -1.95438825190710    3.06724492963251
H         5.63791524794558   -0.50057209409417    4.01346423097087
H         2.44777331633000    1.71784949934905    1.72815689217233
H         0.59689917399729    0.16202554043474    3.31075840890193
H         0.50093666747782    0.22655428012105    1.63670527056540
