32
 energy: -49.310838225810 gnorm: 0.145842105710 xtb: 6.4.1 (79825abcba525fcdf90b791dcacef51065a7a4e7)
C         3.39291561518839   -1.51978722468577   -0.40680727123686
C         3.20557266642258   -0.17272076138638    0.28067847061093
C         3.19528151005038   -0.28892314784609    1.82907851980116
C         2.62272808617867   -1.65723178594343    2.30813870357685
N         2.41646068491389   -1.75350063249532    3.77112802505605
C         2.01577434934253   -3.09003352396825    4.18714685026807
C         3.57245438491341   -1.11060984308447    4.46267715242217
C         4.79435909455676   -1.00358849835740    3.50847469492403
O         4.55489719019922   -0.16511377086721    2.34211462212204
C         3.16490704168511    0.28289884452607    4.81489150726563
C         2.74423430293020    1.13047721453451    3.83290387841680
O         2.78986406413884    2.41014238453576    4.27917274408425
N         3.12728559044783    2.30172662166051    5.63977244208170
N         3.39174875137151    1.02709098066808    5.93194304775377
C         2.28372132777798    0.88542021435235    2.44484619521191
N         0.81252224721947    0.77596185441805    2.41476412675856
H         2.48702272802214   -2.13180628274359   -0.33420182143288
H         4.07710380940622   -2.25356029175338    0.02592138809487
H         3.75599666546966   -1.43138947088041   -1.43498338153104
H         2.29587428723454    0.29478324595217   -0.11234533331934
H         4.12540738160534    0.40725471126289    0.13527009109354
H         3.37738432013252   -2.35954929162222    1.92956675664895
H         1.61692475432842   -1.75227380314041    1.88346166273640
H         1.08633421247506   -3.39365752228201    3.69082220317450
H         1.78324522636829   -3.07392855976623    5.25648745892522
H         2.83385239442064   -3.79595381406406    4.01085030491476
H         3.80016202388343   -1.63227326991508    5.39983733527994
H         5.09381925520957   -2.00363443888879    3.17545984099548
H         5.66218723835420   -0.71486912629594    4.11224185498921
H         2.61675634396747    1.76707587764659    1.89021391789939
H         0.46345327229458    0.13677793652752    3.13813470277349
H         0.59114160242967    0.28633582548237    1.55177758064610
