32
 energy: -49.315056233003 gnorm: 0.147561108641 xtb: 6.4.1 (79825abcba525fcdf90b791dcacef51065a7a4e7)
C         3.87998120905831   -1.29557571641433   -0.41312886268240
C         2.91379935096066   -0.35558434684145    0.29766711458191
C         3.00863274400406   -0.33220862372077    1.84738057922781
C         2.29173393943433   -1.58876826575332    2.42763791031966
N         2.30853852415529   -1.76461431080523    3.89765405051000
C         1.90541003505960   -3.09179381479279    4.34039929664261
C         3.58225054677458   -1.17869960940041    4.40973982798117
C         4.74641121803742   -1.19607960767428    3.38045128873366
O         4.41958050188277   -0.39080015141352    2.21191186867310
C         3.30837278631650    0.27490608073243    4.61959150322136
C         2.89252144764998    1.23940071731663    3.74983745470313
O         2.80286181633496    2.41369045044448    4.42198750433327
N         3.29392633490855    2.17641922785523    5.71790293556826
N         3.57794116013201    0.87614612270251    5.81077854146745
C         2.36153662753985    1.04157459845683    2.37952755865494
N         0.88893517700965    1.04318679852862    2.47309668244258
H         3.77321270352414   -2.32851727044083   -0.06368210992967
H         4.92752792878073   -1.18279794635581   -0.12378903436070
H         3.79160199154108   -1.30833080156887   -1.50345658702475
H         1.86899425702704   -0.53032463235587    0.01761890427051
H         3.10480029805969    0.65537071631344   -0.08325222479903
H         2.66662690027185   -2.54420482365034    2.03690926681512
H         1.26214018344010   -1.72971642879125    2.07965196092081
H         1.99553224751916   -3.22971077523032    5.42448488018937
H         2.55105122002364   -3.87205857155586    3.92548621162876
H         0.90215248845131   -3.28549511234575    3.94719487362094
H         3.95207562278622   -1.59268712661265    5.35530656794273
H         5.08320091121891   -2.18385565017154    3.04647770564177
H         5.60126978434452   -0.71766536671572    3.87173124773944
H         2.67352246086207    1.83688895533576    1.69689596381652
H         0.51572943071749    0.48690769171555    3.25087637292195
H         0.66547973601389    0.65060206394755    1.56236416726942
