32
 energy: -49.312023945675 gnorm: 0.153591968757 xtb: 6.4.1 (79825abcba525fcdf90b791dcacef51065a7a4e7)
C         3.75849479816754   -1.38658664030276   -0.42833995353220
C         3.07420921825337   -0.24553057092962    0.31467174359728
C         3.09960547581930   -0.35468408821425    1.86341064492540
C         2.42286386752497   -1.68465284280848    2.31373113992601
N         2.35486306587690   -1.61768479761611    3.79124353628604
C         1.82597365631797   -2.86365186574888    4.32769805350315
C         3.59381714350498   -1.12169773455744    4.45971930713422
C         4.75555931329583   -1.18764230782675    3.42966421629493
O         4.50077465982605   -0.34705798846261    2.26807888213764
C         3.31997763440911    0.32144725487162    4.73241100012195
C         2.67445235904349    1.13075023005946    3.84472850985374
O         2.66533833671121    2.36101077626830    4.41495379084508
N         3.37434304432484    2.26681112672778    5.62544028645767
N         3.80390448880968    1.01563058569604    5.79871657064036
C         2.27638561272940    0.90449707854198    2.43434498431849
N         0.82497730496109    0.64211747500988    2.47774664850794
H         3.22067212482478   -2.33250709322178   -0.55664455388163
H         4.77551723924130   -1.47718858493564   -0.03943490414391
H         3.76316197854246   -0.99190234872749   -1.44862945066235
H         2.03664382316305   -0.17056570787916   -0.02944622729084
H         3.51325862087023    0.73027736076228    0.07250330178499
H         2.98856951892723   -2.57553805440330    2.00980139828693
H         1.42037163901605   -1.92195541923325    1.93993876860711
H         2.65991331815934   -3.43355615929816    4.75447480766908
H         1.43941786096901   -3.49115444524547    3.51860372425111
H         0.96529011365996   -2.69947144467879    4.98414626073634
H         3.67920686998735   -1.68805202636007    5.39470814830648
H         5.08599664390228   -2.20386283203497    3.18723034222533
H         5.61385817494303   -0.67990085361704    3.88413207827125
H         2.54203789319470    1.83945832230546    1.93322390214570
H         0.68141374157622   -0.19259723500942    3.05766999125537
H         0.43197233590664    0.54841479813964    1.54487167218600
