32
 energy: -49.307433906918 gnorm: 0.159897147724 xtb: 6.4.1 (79825abcba525fcdf90b791dcacef51065a7a4e7)
C         3.52312806168902   -1.50096874061379   -0.46729912609179
C         2.94575309481567   -0.31646364284627    0.29814708780592
C         3.15140039437878   -0.29862221175467    1.83715407395855
C         2.45622300302447   -1.58077639115602    2.38705740904390
N         2.48304158296417   -1.71182725611634    3.86159399133567
C         2.10373785973316   -2.97468468927663    4.47905749165885
C         3.74482687336938   -1.14330589417241    4.42065710708457
C         4.86452158814849   -1.23660817121636    3.34707177529542
O         4.52734014335976   -0.26149347409822    2.31933751746327
C         3.35945853379222    0.27645527684483    4.68101403769272
C         2.84184833787414    1.14381800327425    3.76481758347349
O         2.62490034894530    2.29265534132826    4.45175809935355
N         2.89625547851972    2.07905366922122    5.81468858899266
N         3.36195703122077    0.83351333760434    5.92309428089011
C         2.42643520485502    1.04523353547948    2.34476747527637
N         0.95578975616151    1.08378965493142    2.23062631781122
H         2.85776214081901   -2.36459166657610   -0.35810006042069
H         4.47476376047907   -1.86123848602372   -0.06932211564460
H         3.71944466243818   -1.17461920521397   -1.49284478605993
H         1.85709940769651   -0.29421320464743    0.17601222282173
H         3.32674581472907    0.62085974389769   -0.12597608209434
H         2.87455779829703   -2.54706749041430    2.07504757149685
H         1.38791290576696   -1.58103004425308    2.14264507416692
H         2.97169633182365   -3.64474919507716    4.47225243610222
H         1.33393597255077   -3.35307863501553    3.79932108650321
H         1.78867010061114   -2.69445233190306    5.48943254796057
H         3.96192683286072   -1.62678003823227    5.38053891158623
H         4.91418342790527   -2.25919074645983    2.95652633045576
H         5.70386357053246   -0.87043536033970    3.94910322536683
H         2.91419317215864    1.77688955074729    1.69467699691143
H         0.56677277917212    0.21986112655697    2.62554847869044
H         0.68438821431449    1.21792319766824    1.26014282395656
