32
 energy: -49.314003153704 gnorm: 0.152501859416 xtb: 6.4.1 (79825abcba525fcdf90b791dcacef51065a7a4e7)
C         3.79200995796347   -1.52763822773079   -0.36495400466620
C         2.97149500369094   -0.40777617579610    0.26352533726645
C         2.97596939029534   -0.42399333190102    1.81622254337924
C         2.30514991263579   -1.72811302464446    2.34429230256600
N         2.45628709560267   -1.71507008732914    3.81709206289525
C         2.12981326204211   -2.98335571349699    4.45333714000383
C         3.69335137926845   -1.14469024781162    4.42718142333831
C         4.77514093411530   -1.09180904136494    3.31275691225418
O         4.40437109946714   -0.36711747214186    2.10522655251074
C         3.33135093642894    0.27434128873284    4.72268350725659
C         2.71948572261095    1.13481285762879    3.85962845351262
O         2.50496477303933    2.29148468923190    4.53407042225522
N         3.00637047830079    2.09102435336885    5.83224097185667
N         3.51167960936334    0.86077744856719    5.93786146821617
C         2.43120262416140    0.96672716796676    2.41482073490275
N         1.01668041937436    1.34958559532712    2.24202267374058
H         3.41101514185063   -2.54228653279637   -0.20429109919624
H         4.83543260922482   -1.52045045634318   -0.04090462395009
H         3.79301056309706   -1.39246264361561   -1.45054816871735
H         1.98102909110485   -0.58119461693913   -0.17177016471841
H         3.40238236957516    0.54617040964539   -0.06500630084428
H         2.75619842575298   -2.66167037255240    1.98221697503449
H         1.24971151546588   -1.72325344552082    2.04924978044798
H         2.84933746459587   -3.76698142284555    4.18762991367102
H         1.14236845164096   -3.20244319139677    4.03527981203759
H         2.11950096747116   -2.89199684793277    5.54430131672656
H         3.94292679352486   -1.62226001009600    5.38211176793197
H         4.95711445537820   -2.12247481875740    2.98828677841903
H         5.63174245924385   -0.48246612096688    3.62252196945743
H         3.02932783999664    1.69453766007262    1.85949730197250
H         0.38628305896246    1.08719888600477    3.00845766877037
H         0.67059342998917    1.15416212379117    1.30632919998062
