32
 energy: -49.316379291594 gnorm: 0.141535286336 xtb: 6.4.1 (79825abcba525fcdf90b791dcacef51065a7a4e7)
C         3.67543866765301   -1.54580435531707   -0.31509351793622
C         3.00918586281738   -0.32985131605136    0.31727306466403
C         3.10779004431438   -0.33567516429510    1.86691655005080
C         2.35009350716157   -1.58381880855202    2.41246034228109
N         2.40539105549638   -1.71078760963567    3.88656101789167
C         2.19978883170151   -3.11064802893627    4.23015950240048
C         3.62423162921747   -1.07958732717954    4.47297731683832
C         4.75300522745590   -1.26857729757212    3.42171142575265
O         4.51013423035374   -0.42963474798161    2.25639311101438
C         3.28969125358308    0.35961268361922    4.69388978646753
C         2.83716393319440    1.24737555254035    3.76289544386168
O         2.59460674323483    2.41076488142596    4.41594383856812
N         3.00111450259530    2.25525448779909    5.75288316377433
N         3.41511883726818    0.99454329820881    5.89147664649424
C         2.41608215623233    1.03181646971929    2.35752940624239
N         0.94111712229301    1.01546680141042    2.39656346378166
H         2.94375550618647   -2.36124039613494   -0.30150608767734
H         4.56991713359970   -1.87166773786061    0.22110777263585
H         4.06069638118608   -1.30705546383247   -1.31076594847340
H         2.03807365557063   -0.28583433515752   -0.18827855178961
H         3.55491440422358    0.57840215931249    0.03290176661991
H         2.81430532612834   -2.44735555668155    1.91760248029892
H         1.32647206019286   -1.41758605026411    2.05807393555306
H         2.55888623539995   -3.77352044515668    3.43389706194074
H         1.12840377491127   -3.31037198047478    4.33047353921799
H         2.78393199199419   -3.29210897692915    5.13818170109755
H         3.81908796746996   -1.55512066988203    5.44155966163248
H         4.70478611630323   -2.30672843022903    3.07445891189357
H         5.78517642688211   -1.00848628348285    3.68246921367129
H         2.72811920188302    1.92415935802316    1.80779943555221
H         0.42312097344751    0.24365774339565    2.83206430828064
H         0.52320996841819    1.09757735555239    1.47347068209878
