32
 energy: -49.317528079728 gnorm: 0.149568715583 xtb: 6.4.1 (79825abcba525fcdf90b791dcacef51065a7a4e7)
C         3.57853393205922   -1.43635350525051   -0.46314206340360
C         2.72263345930017   -0.41741934212023    0.27950835038232
C         2.94866088835424   -0.36132465349384    1.81473361468748
C         2.17256622068385   -1.57755550990136    2.40468631164468
N         2.32890388320387   -1.65427015133435    3.87500093543050
C         1.95137361306779   -2.95666306574500    4.40526971520800
C         3.68042071319541   -1.25831506981483    4.36946230643211
C         4.69773929919195   -1.37219015346914    3.20023076800324
O         4.37235672919132   -0.45463984090661    2.11717707177201
C         3.51397634083989    0.18493631780785    4.71779829572233
C         2.96552654593239    1.11107806048273    3.88047002017214
O         2.75653191587814    2.24216032283599    4.59863092474748
N         3.26093985272748    2.01072143021196    5.89046972007317
N         3.65167984621156    0.73666950922298    5.95461334961576
C         2.60593413649154    1.08020091982273    2.44221789913004
N         1.22720930246517    1.58797401967983    2.30584666249484
H         3.52012051157201   -1.11724331300775   -1.50967794985977
H         3.17357976136718   -2.43743251177677   -0.29687890783959
H         4.50245605168771   -1.35028207072196    0.11629538392939
H         1.64789046155133   -0.62411038944397    0.22673375497104
H         2.89778103522937    0.60859456605686   -0.06723339111068
H         2.61168078341355   -2.44087289820310    1.88706278214033
H         1.09102954372760   -1.47617342389809    2.25968974949520
H         0.92657379165017   -3.15112478651825    4.06710610733105
H         1.95875954344497   -2.86386732380026    5.49575259109607
H         2.68209526796926   -3.69436659600646    4.05814583980754
H         4.07464215377259   -1.84444451368047    5.20808882672678
H         4.69947506031410   -2.37889389165475    2.76755105187436
H         5.74306119036428   -1.13129704427344    3.42448955423949
H         3.38160711801708    1.69905281813889    1.98265315875982
H         0.55425074868883    0.91774762302206    2.69519686971609
H         1.00557298753706    1.68885707203945    1.31883664820369
