32
 energy: -49.312274908536 gnorm: 0.148055448953 xtb: 6.4.1 (79825abcba525fcdf90b791dcacef51065a7a4e7)
C         3.70227276542903   -1.39219308324164   -0.52634767402480
C         3.04338691344377   -0.28349387157372    0.28542665712554
C         3.11598652491534   -0.32411517938091    1.83598488367358
C         2.39449828427170   -1.62375779289202    2.30499278048809
N         2.25994884321669   -1.66303892756850    3.77893481890335
C         2.00836207259286   -2.99789957032078    4.30314140535652
C         3.51281345256102   -1.14117371325680    4.40010884972907
C         4.76688210153070   -1.15475871273556    3.48243009025092
O         4.50135325405688   -0.36152406708711    2.29035168551307
C         3.34431482271384    0.31845728380371    4.67048235131757
C         2.90332124308532    1.24675913929774    3.77413717243913
O         2.88925891786227    2.44928075362991    4.40065527161391
N         3.27308614185240    2.23387725336966    5.73598923428015
N         3.63775270149291    0.95455061199425    5.83768530753173
C         2.31786823148015    0.93157510244360    2.44871910610561
N         0.85765085751653    0.75178876320863    2.56165666627217
H         3.09453513940678   -2.30257227454231   -0.47791724324912
H         4.70208502968697   -1.72049403728722   -0.23243542772872
H         3.55318239802395   -1.01468856728711   -1.54224655213603
H         1.98693292861737   -0.48663507087490    0.07753850054005
H         3.31110764699472    0.70911065401181   -0.09755232858703
H         2.84236018120424   -2.51202548671803    1.83972635366894
H         1.32462642856668   -1.63102031388972    2.06762095113807
H         1.45579021435763   -2.84525082328480    5.23788594913303
H         2.84556822344097   -3.66062987701074    4.54333487038768
H         1.27896261555472   -3.48762800733629    3.64984353349091
H         3.64507161985120   -1.65226522918925    5.36112183406909
H         4.99248868291704   -2.18328729611950    3.17928360838014
H         5.65259721827416   -0.72283322720347    3.96198035538156
H         2.42595104130964    1.78259272272584    1.77053543402958
H         0.68936728326290    0.05255246354129    3.29406328544014
H         0.34710748039413    0.54212270949754    1.70791524462473
