32
 energy: -49.315114069680 gnorm: 0.150211088774 xtb: 6.4.1 (79825abcba525fcdf90b791dcacef51065a7a4e7)
C         3.77395605029483   -1.45881006325169   -0.44079460600664
C         3.08722872617407   -0.28731972807730    0.25082526776043
C         3.10790583591367   -0.29803074542188    1.80343897702704
C         2.41868432924902   -1.59489225195036    2.32565402236637
N         2.36139978470648   -1.67888588586742    3.80275091841544
C         1.88218823530649   -2.98082343670658    4.24462905260302
C         3.60306214317117   -1.16875071057000    4.45536635465853
C         4.77022354214122   -1.13575411361788    3.42986524256231
O         4.46166266589649   -0.21997186797875    2.34041090205918
C         3.30597689705739    0.28702747881013    4.61178404749199
C         2.84020517862635    1.24357528781747    3.75871467459698
O         2.80841345242417    2.43596292939128    4.40368127329345
N         3.36605149570107    2.20314698675669    5.67319903615427
N         3.52351848118527    0.88588910661956    5.81474858433890
C         2.26935885258603    0.92521778467251    2.42769542318884
N         0.82161678356133    0.78481013863474    2.67597228931303
H         3.09553256163482   -2.31893625648417   -0.42066248269924
H         4.74777709726848   -1.64682872708724    0.01758519436043
H         3.86231227995503   -1.28464178759855   -1.51719913632408
H         2.02055764366541   -0.28484038526628    0.00025490956665
H         3.54953053750775    0.62758374099931   -0.14012193638406
H         2.89807901820366   -2.53437629982643    2.01967513665821
H         1.39787754410014   -1.68969659295796    1.93836917096431
H         2.04994189828449   -3.21026176583945    5.30368590593248
H         2.36878247941981   -3.80248238889952    3.70991313893394
H         0.82332752776145   -2.96862297597107    3.96656292531901
H         3.75572878331478   -1.67463159636005    5.41611092951160
H         5.04680362985774   -2.13543462012393    3.07658135711075
H         5.66824184760145   -0.68759999518781    3.87002471507942
H         2.43994364604155    1.81236991167612    1.81149097839442
H         0.53884117956570    0.11789257797092    3.40324743848774
H         0.36487727627935    0.46654462502707    1.82533435167330
