32
 energy: -49.317183848443 gnorm: 0.144754329396 xtb: 6.4.1 (79825abcba525fcdf90b791dcacef51065a7a4e7)
C         3.31678710285792   -1.45841382741069   -0.42217346029214
C         2.75064268915995   -0.29096814180213    0.37712195734659
C         3.00972675157401   -0.31473386332220    1.90795907569451
C         2.21697775840151   -1.53332031808954    2.47025856399674
N         2.27116104309992   -1.68369574218321    3.94219711860881
C         2.07850841327803   -3.07789944601926    4.31505418444564
C         3.64142366170441   -1.25991341143941    4.35530621113789
C         4.73320412854514   -1.38750012795847    3.25678717394317
O         4.43457368821795   -0.43788807191687    2.19385043615297
C         3.42111054747488    0.18340204724370    4.67203778762223
C         2.93033121168886    1.16122369457300    3.85800165295257
O         2.97470545568330    2.32499735424806    4.55258262055721
N         3.27911294664319    2.00554539619097    5.88754528925876
N         3.55698015523987    0.70113537368876    5.92366669226754
C         2.56029662548294    1.14223869376378    2.42219412791905
N         1.16193412023093    1.56052698789033    2.20556076262875
H         3.36627912163293   -1.18259441824136   -1.48139723164314
H         2.74802417284054   -2.37909952625248   -0.27171726023622
H         4.36861524362798   -1.53150951732354   -0.13044976964737
H         1.67428394323850   -0.22887997099816    0.18173575915633
H         3.24012732467829    0.62089427978232    0.01308519054358
H         2.66856014117092   -2.44330755004242    2.05304252529393
H         1.19349218788536   -1.45865523975739    2.08564663759283
H         1.30917089531679   -3.66976648479959    3.80495826011123
H         1.76581905063201   -2.99712019010179    5.36076857207454
H         3.00524889654956   -3.66038961239971    4.33770156065589
H         3.94367266266703   -1.86209012796054    5.22033884692755
H         4.81043496373799   -2.39961927271657    2.84409188557146
H         5.74840180271004   -1.18605208904651    3.61708111069162
H         3.20332594224973    1.79351766901302    1.82370019282175
H         0.63495970793760    0.76059404107589    2.57444485958337
H         0.90292771763681    1.66797017898346    1.22839114748258
