32
 energy: -49.316062384478 gnorm: 0.152015165165 xtb: 6.4.1 (79825abcba525fcdf90b791dcacef51065a7a4e7)
C         3.92146674989230   -1.25173707465515   -0.49283460559191
C         3.07169451075513   -0.22868633159671    0.25119254699889
C         3.02039573439095   -0.40077679611594    1.79356245617933
C         2.37311093384830   -1.72380545690290    2.30366262028423
N         2.32606670172752   -1.67409149853527    3.78267143085201
C         1.79770673937508   -2.90694078724920    4.34911628050411
C         3.52235858047179   -1.17538451007237    4.52297360054598
C         4.67134041832882   -1.21973862279043    3.47756434956149
O         4.38853149304795   -0.41286916658105    2.29868416144320
C         3.30000268456135    0.28922743457866    4.71658661707813
C         2.82282349016989    1.12897431665567    3.75389270301715
O         2.98675644460213    2.37558586646431    4.26169834323185
N         3.45315956240586    2.27048976533675    5.58391683662204
N         3.68530991328276    0.97900546429885    5.82511170753444
C         2.22188381382913    0.84349175291459    2.42867554837556
N         0.76033854706407    0.77823131192745    2.62087160776413
H         3.35271895516004   -2.18426434789856   -0.57885572833844
H         4.91284241338956   -1.34263056009722   -0.04260892640149
H         4.01705302580332   -0.82270957899888   -1.49462640071815
H         2.07280293783933   -0.06502173008719   -0.16834097481621
H         3.63809726805620    0.70970193833091    0.20400753435592
H         2.89187835739775   -2.61467389807599    1.92510429374557
H         1.32262578469324   -1.68258883269271    1.99413707354193
H         1.54619041125279   -2.84419189104668    5.41456772087934
H         2.47392799637225   -3.76187715447334    4.25099838692482
H         0.89919416489420   -3.31623158323327    3.87602874548678
H         3.85812487710253   -1.70144535917497    5.42451322503723
H         4.94405702521473   -2.22069373214355    3.12488646319622
H         5.56931424283273   -0.84870613788322    3.98451332436149
H         2.44101641310904    1.71593437105047    1.80684696968815
H         0.44585676477368    0.16923725395005    3.38500357727720
H         0.29727909182036    0.58455242588991    1.73681660591134
