32
 energy: -49.314966375128 gnorm: 0.145402100752 xtb: 6.4.1 (79825abcba525fcdf90b791dcacef51065a7a4e7)
C         3.80887232058155   -1.50629633248706   -0.43511738835640
C         3.08230634935475   -0.36619458811554    0.26815494442928
C         3.10374142087514   -0.35513614123347    1.82075593961141
C         2.42468573486886   -1.66459216340461    2.32453455597469
N         2.39581482458643   -1.81047100435713    3.79763927570810
C         2.09038134671269   -3.18451206157742    4.17001399883030
C         3.52071650408447   -1.08726945535151    4.46054645670893
C         4.71842715027621   -1.10947995862026    3.47059548575579
O         4.45629973452307   -0.21842822631481    2.34894771348979
C         3.11354565084621    0.32292571581682    4.73907425319612
C         2.72395270863882    1.24199589542810    3.80999852980506
O         2.79915482598844    2.45922182191548    4.40286157987069
N         3.18847210261357    2.29420065625827    5.74377129664494
N         3.37842755053670    0.98288088415806    5.89984124485984
C         2.34270890121568    0.93415697795789    2.41045659694778
N         0.87222117096847    1.01890214612013    2.49875660187425
H         3.69389757057370   -2.43595715096881    0.13320678751320
H         4.88353598038067   -1.32466198378732   -0.51191239183671
H         3.45263554916530   -1.57741409051023   -1.46702133359547
H         2.02604923729466   -0.42673073708201   -0.01686284229320
H         3.54018353830614    0.59521916831456    0.00425512758903
H         2.95363555436403   -2.54762341662474    1.94172844908368
H         1.37178157225615   -1.71440014188539    2.02464141038078
H         0.99595115268916   -3.24663213460525    4.14265882849919
H         2.41278549082358   -3.24097847246755    5.21437294742436
H         2.61214073398169   -3.98619365521074    3.63735146245585
H         3.72883443846505   -1.50218987526596    5.45391481052090
H         4.88384720937032   -2.14643398990966    3.15749852954190
H         5.64566561192853   -0.76349754539759    3.94128046812018
H         2.73659051727716    1.68489145991177    1.71973161704576
H         0.45205212656730    0.17567546339311    2.90630654301804
H         0.51793167087660    1.04468374594911    1.54623202148206
