32
 energy: -49.316553886029 gnorm: 0.150490715292 xtb: 6.4.1 (79825abcba525fcdf90b791dcacef51065a7a4e7)
C         3.67456735860103   -1.43465931337384   -0.46918275252769
C         3.03092854471843   -0.27358085869622    0.27911397423461
C         3.12268222935528   -0.43774113586713    1.82047191575616
C         2.25989430943772   -1.60686306415811    2.38468423680451
N         2.30847078648328   -1.70451536558924    3.86125324771421
C         1.96314017641667   -3.00816208090416    4.41006413555187
C         3.60537390699720   -1.19586065728401    4.39714772862509
C         4.78759396930111   -1.21733436658276    3.38873232268763
O         4.52258290413909   -0.38186688024614    2.22574439628581
C         3.33975119556063    0.23221758095533    4.74650913605749
C         2.98099161937606    1.12261881833273    3.77793720659901
O         2.71052898114287    2.32223089743891    4.34939303491772
N         3.02898569039704    2.18363265806684    5.71182272354091
N         3.38186572014324    0.91454221173928    5.92368487394070
C         2.47435110975977    0.91627827222904    2.39968894322642
N         1.02774823581625    1.20661554444053    2.38078889474848
H         3.13577687561557   -2.34721461021467   -0.19092307226367
H         4.70100978822708   -1.48541672607355   -0.09819741600520
H         3.60859485238515   -1.29454255424836   -1.55214307094465
H         1.97244824270475   -0.10510010212254    0.05149028738896
H         3.58277321757935    0.66400062560363    0.13762380144404
H         2.75714024287724   -2.52167074637628    2.03547653448297
H         1.27003152565243   -1.56742665991425    1.91602620380081
H         2.18094830082951   -2.96819398971682    5.48400399955422
H         2.45614521310668   -3.88831159315553    3.98568062071660
H         0.88927341123328   -3.12083046291548    4.22903478335697
H         3.86722485228931   -1.82981222744939    5.25259626882708
H         4.97613162813942   -2.25295486240135    3.08441192430358
H         5.67560086364804   -0.70596177461110    3.77726955305347
H         2.98297403469936    1.71746168658946    1.85631626385007
H         0.57210786737307    0.57034265043434    3.04503198664591
H         0.74573905765955    0.90960047520203    1.45033648144583
