32
 energy: -49.317056615163 gnorm: 0.142666207718 xtb: 6.4.1 (79825abcba525fcdf90b791dcacef51065a7a4e7)
C         3.75489193782400   -1.48266688546148   -0.36124194418412
C         3.05394125661643   -0.32967823216899    0.34700052223839
C         3.03548859398432   -0.38194079446877    1.89879939889878
C         2.32449599858681   -1.67805857850876    2.39291763929268
N         2.26593369501238   -1.71330088322543    3.87193086903852
C         2.13255450593501   -3.10421866408200    4.28119741627900
C         3.52400301413914   -1.12231113506699    4.41586368753273
C         4.75316743510449   -1.17983175308367    3.46673080424498
O         4.43807711831215   -0.36958251820341    2.29840209626736
C         3.30155954554761    0.32134022029606    4.72956086720729
C         2.75443342276627    1.16941123428361    3.81245514325972
O         2.71936962567411    2.40871997570378    4.36169580021084
N         3.21735249259599    2.26830110215875    5.66903447309069
N         3.57153808068797    0.99922050149850    5.87876631195864
C         2.32159000552484    0.96695872237053    2.40871413369202
N         0.84916118002880    1.02874892953125    2.33490270529777
H         3.24860974822814   -2.44359742450206   -0.21711822878971
H         4.71873356918079   -1.61111797808584    0.13705527692184
H         3.81048450316605   -1.29097715039583   -1.43685927364391
H         2.04477746877716   -0.12946185370660   -0.02993541799809
H         3.59033543700587    0.59975919980417    0.11888126892858
H         2.94087352984653   -2.47886388852781    1.96296156498466
H         1.31606948522893   -1.87259735736439    2.01048523583584
H         2.78905798936082   -3.57014409570363    3.53668325836439
H         1.09793037125766   -3.41044872990867    4.09790925446836
H         2.44974251706023   -3.24015118245821    5.32022086947956
H         3.83259305493367   -1.70090818377357    5.29464145030021
H         4.86726989428245   -2.22251763355919    3.14978609281171
H         5.73752407756479   -0.81369426222186    3.77978780125677
H         2.70330560984878    1.84237040853116    1.87599134673458
H         0.34261861668957    0.24428484492751    2.76116664737519
H         0.48738397182132    1.29106009632406    1.42177680311210
