32
 energy: -49.310648872544 gnorm: 0.146822641084 xtb: 6.4.1 (79825abcba525fcdf90b791dcacef51065a7a4e7)
C         3.86447555778035   -1.16101924477127   -0.49393370638314
C         2.84390690863875   -0.35297891318189    0.29842513685861
C         2.96954588903032   -0.46400650220072    1.84213473846059
C         2.22045108365729   -1.68258434398712    2.46141626051060
N         2.32350482787756   -1.80950435411805    3.93295386325994
C         2.13045881316112   -3.17106702372655    4.41130698154703
C         3.54589393043346   -1.12207089787303    4.44390427153802
C         4.69629268934969   -1.23507814274712    3.40524211748583
O         4.38864183489396   -0.52120484026733    2.17377406827072
C         3.21723158862209    0.30499942822977    4.73965349066948
C         2.73971185334090    1.21849219463260    3.84681519768411
O         2.88703011020469    2.43306050029458    4.43153912578817
N         3.34500368601894    2.23379690350956    5.74584237106765
N         3.51860060827823    0.92184996755580    5.91513440197354
C         2.41017000799427    0.92500346833739    2.43115429625342
N         0.96749978909126    1.12094522795423    2.19110790984663
H         3.94621328512608   -2.18278939291036   -0.10691237653980
H         4.84368965955375   -0.68146109870087   -0.42354747731636
H         3.44630232929582   -1.34348875532612   -1.48822951569327
H         1.82481107001997   -0.51821993618336   -0.06861426688281
H         3.01668562984610    0.71460756294686    0.11398631994401
H         2.61444977026482   -2.57980865874688    1.96560764116254
H         1.12767766561208   -1.74370604925104    2.40543145368823
H         2.23199743266481   -3.17038765518228    5.50312844338396
H         2.84725749067113   -3.92155372047474    4.06376148692322
H         1.13604469508117   -3.43842455831267    4.03939821556024
H         3.92402039033824   -1.53583774771437    5.38627898017729
H         4.93769223640845   -2.21780224333110    2.98494845761296
H         5.57368445489419   -0.70216941145038    3.78892339536939
H         2.93856931072141    1.69878797034211    1.86733010989502
H         0.50598845697590    0.33400136446425    2.66163619837525
H         0.66655628725086    1.15386203157622    1.22062436904729
