32
 energy: -49.315546291154 gnorm: 0.138453702510 xtb: 6.4.1 (79825abcba525fcdf90b791dcacef51065a7a4e7)
C         3.13680331467292   -1.86300716934082   -0.26589342447619
C         2.64598093343745   -0.59408407024337    0.42058282368487
C         2.96283245109274   -0.44114023410857    1.93298651215207
C         1.94846237304372   -1.27996885156445    2.76785447034044
N         2.50581864508888   -1.89766626137310    3.99258121082535
C         2.87702172024632   -3.28690186509975    3.76416469947741
C         3.65928979304451   -1.13961994148250    4.56068358333907
C         4.83169869697647   -0.98865279299485    3.55188562690645
O         4.33644311461616   -0.85946331804371    2.18850391848522
C         3.19268316580741    0.25594787378815    4.81891798339597
C         2.83158334286259    1.15361928301625    3.85795631771661
O         2.42015333030696    2.28751344610826    4.47746443064283
N         2.66934748304709    2.13242268131772    5.85248731426172
N         3.08316321801796    0.87595794986804    6.02584637703973
C         2.85795203116803    1.10214225279664    2.37623971669678
N         1.71055918539501    1.85741803381832    1.83738819471168
H         2.53371545227848   -2.77528977633095   -0.19876463255818
H         4.15924518611327   -1.98400963090885    0.09984079432095
H         3.10206515194822   -1.69683550712835   -1.34661927588104
H         1.58067098809933   -0.40673044703428    0.24567659136785
H         3.22769715434054    0.13336032145233   -0.15910842277893
H         1.54045905562786   -2.06979369136870    2.12304237013301
H         1.11310804726077   -0.63459293786997    3.06229800562263
H         3.29607563506212   -3.83397316428960    4.61709580385421
H         3.71956523362341   -3.26411336352716    3.06601026399010
H         1.98575044270582   -3.82817259418038    3.43052248291738
H         3.88619288405138   -1.58531107465853    5.53645359844172
H         5.44120785990490   -1.89815274751203    3.50743810847845
H         5.35894711585735   -0.10749585445403    3.93475754460452
H         3.77914324897651    1.57237875797313    2.02109135178600
H         0.80457361792153    1.38777893194479    1.94829124035291
H         1.86045017616336    2.06219947786123    0.85296650307562
