32
 energy: -49.315652216198 gnorm: 0.149088627384 xtb: 6.4.1 (79825abcba525fcdf90b791dcacef51065a7a4e7)
C         3.41147333604385   -1.50127568682362   -0.42728054198323
C         2.78802756404688   -0.30948160614659    0.28914413826695
C         2.97695281306223   -0.31915520637340    1.83036615074159
C         2.22475137501237   -1.57461985772891    2.36663670884711
N         2.41029012267849   -1.72832599478548    3.82749312877606
C         1.84676567890160   -2.96591801215712    4.34782722002139
C         3.73459557223905   -1.20992769481092    4.28064704622528
C         4.84452606975995   -1.24847009280856    3.19364392710587
O         4.41175230321391   -0.49121885631600    2.02742991422269
C         3.46792239818040    0.18462198884416    4.74554794044396
C         2.91510630822646    1.15584561389485    3.96402801939836
O         2.87250253409201    2.32182356600020    4.65501372890102
N         3.21417717099441    2.01561574789967    5.98404872273808
N         3.62967428774960    0.74783556820356    5.97425052103774
C         2.57889288272071    1.07817612645894    2.52189167473203
N         1.17383569999713    1.46639156781075    2.29294651553002
H         3.24095483661340   -1.47201821207606   -1.50919932061799
H         2.91222817122023   -2.42742051934327   -0.13266128127330
H         4.48688180892057   -1.51487704314835   -0.22703133005752
H         1.72007538291863   -0.28977552783660    0.04487244201141
H         3.26501796847056    0.59647859444765   -0.10497172714690
H         2.63421365893443   -2.44134486177755    1.83072530689031
H         1.14643061392955   -1.53040006805052    2.17612987056960
H         0.87226334850188   -3.29291611963439    3.96598681048091
H         1.73721393447224   -2.73030042035121    5.41098349582415
H         2.44463362654237   -3.87656152026248    4.23856638194706
H         4.11703837481521   -1.81360522515750    5.11225010809502
H         4.94046023037432   -2.30997407095838    2.93933485378675
H         5.83760358889240   -0.88625712625702    3.48281195667195
H         3.17695693357638    1.81849620787222    1.98329019242491
H         0.72653773207128    0.74133270755615    2.86555843178516
H         0.87852028048623    1.40878746769652    1.32188555773818
