32
 energy: -49.308625970789 gnorm: 0.149390276705 xtb: 6.4.1 (79825abcba525fcdf90b791dcacef51065a7a4e7)
C         3.23772940857314   -1.97589333134958   -0.11784071280081
C         2.83883196382217   -0.57700053243416    0.33636392490476
C         3.04520264565675   -0.40203719349874    1.86539976375336
C         1.98890176273920   -1.19736029165944    2.69079314710902
N         2.44764946685445   -1.94505555662344    3.88354376275347
C         2.92138768233504   -3.27783509829376    3.53827259197090
C         3.50225566921305   -1.12697857413654    4.55169496334474
C         4.71324044834074   -0.98498119246637    3.58818074624510
O         4.40299923926831   -0.83655807820558    2.17308404741144
C         3.03946381286447    0.27258078163998    4.79474555434180
C         2.81037816131878    1.20313918399630    3.82457278414177
O         2.63642090042611    2.39514825665581    4.44717553265821
N         2.78346752156241    2.18610272653968    5.82975141166250
N         3.07884783199283    0.89674691487737    6.00385630386962
C         2.81283066325687    1.11647724461099    2.34426437169124
N         1.50761087744339    1.75037011253680    2.07613385020596
H         2.93087579365614   -2.77229290146292    0.56923234400688
H         4.32690425460983   -1.99691084627744   -0.03389480908422
H         3.01185564537712   -2.29457440546422   -1.13970740762482
H         1.77501188634933   -0.35956809241335    0.18943253507913
H         3.52433124742741    0.12574910665179   -0.15337552001758
H         1.41701605089114   -1.93639276327976    2.11386128927926
H         1.21859838858682   -0.52936962151532    3.09259545425167
H         3.29074556416512   -3.83962447007312    4.40450126569442
H         3.53298552410940   -3.42760235974067    2.64309867201898
H         1.98064356613264   -3.79180851767143    3.31581483375496
H         3.80410831617013   -1.67106950842283    5.45452537504050
H         5.19326955953686   -1.96588703223369    3.67797472941965
H         5.39543492361220   -0.20480829597398    3.94449563463692
H         3.50415834499402    1.88563570133766    1.98886698542492
H         0.71484457590197    1.32340116156621    2.56897188643008
H         1.26902769097663    1.88856827702564    1.09763083697842
