32
 energy: -49.318122124776 gnorm: 0.149055400884 xtb: 6.4.1 (79825abcba525fcdf90b791dcacef51065a7a4e7)
C         3.61186433074534   -1.47471379956709   -0.41790242359494
C         2.89708567436549   -0.31959827867471    0.27283753961124
C         3.02059559670716   -0.39519313667793    1.81885899916731
C         2.34810324194165   -1.66401167996103    2.42502578017345
N         2.42058379454497   -1.69980236804175    3.90340912002861
C         2.16264881312296   -3.06792899414818    4.32960212223908
C         3.66891692358399   -1.12579702473476    4.48654932230386
C         4.71658335130647   -1.31161953533536    3.35390988477273
O         4.42416571518418   -0.45912600170372    2.21000236750203
C         3.39182784910770    0.32532461030398    4.70899916766876
C         2.79023806820093    1.19081775080585    3.84374444500356
O         2.56507809902474    2.34431287918711    4.52015623710017
N         3.10212827914447    2.17784554508882    5.80883949344512
N         3.49486553189254    0.90899821090341    5.93447525185795
C         2.42179364098801    0.97004083489153    2.42447155273013
N         1.00254002657194    1.33503618144355    2.25181469860101
H         3.11742694491227   -2.43533014967038   -0.23561500567742
H         4.66484191796489   -1.60552201125888   -0.15729178009856
H         3.64943405524109   -1.17052472743751   -1.46806700788401
H         1.85958527581890   -0.23318632516968   -0.06878323346601
H         3.48170739751357    0.56104864122676   -0.02091319575173
H         2.90182414214608   -2.52278369168414    2.02256282535950
H         1.31334527960581   -1.73093158563972    2.07031236830011
H         1.94811544482761   -2.90366253007873    5.39232345286256
H         3.05506441525230   -3.69833275608478    4.26632499808256
H         1.34280081427881   -3.54904037150384    3.78642929311035
H         4.07177843043865   -1.58819458548745    5.39547386480662
H         4.80749977975753   -2.33938406791769    2.98499060036592
H         5.74328697004062   -1.01104452155318    3.59172009306717
H         2.90876619038135    1.74632645759934    1.82774349803348
H         0.40116393912584    0.69402220621555    2.78202042168181
H         0.75600560493521    1.26339228779760    1.26815990738612
