32
 energy: -49.313083389010 gnorm: 0.149279903060 xtb: 6.4.1 (79825abcba525fcdf90b791dcacef51065a7a4e7)
C         3.88986025628256   -1.25468964770301   -0.46781089350343
C         2.83495027818074   -0.45400006007376    0.28610104269255
C         2.98774295061180   -0.42484769307574    1.83107876715351
C         2.21839847798202   -1.65375620988024    2.40333530821644
N         2.33519367569848   -1.80807712856276    3.87122345684779
C         2.05880819589923   -3.13414054379059    4.40517875261741
C         3.59824582571372   -1.19651568445690    4.37971344473767
C         4.73400832501846   -1.20618611504004    3.31907351873733
O         4.41067127802028   -0.40016980095652    2.15007028790059
C         3.29792441036420    0.23953059819816    4.66183820181150
C         2.91480029624331    1.21454500799434    3.78878770279216
O         2.75029665012052    2.40446945373465    4.41791351758202
N         3.18624523932869    2.17056764321069    5.73399769963066
N         3.39243807246777    0.85947286286981    5.87006914415544
C         2.49002974817706    1.00191770721842    2.38408527875225
N         1.03890337117112    1.25932619268301    2.45678968807856
H         3.94301446368674   -2.18827052739189    0.10322516093108
H         4.84182460066730   -0.71847836217184   -0.47345348708725
H         3.56708475537157   -1.46665674212189   -1.49137039534402
H         1.81588539722327   -0.81772917795822    0.11351264618381
H         2.92017263775136    0.59483281331664   -0.02421782972068
H         2.59410921934804   -2.47678034318447    1.78080391184457
H         1.16585205409601   -1.44201819649791    2.18347863508634
H         1.74318612788850   -2.87980289800912    5.42404073175428
H         2.96872779617687   -3.74109969609606    4.44345939001947
H         1.27522017250668   -3.70181238279490    3.89293456534994
H         3.83865742333997   -1.66236891739650    5.34274809797310
H         5.03453809165339   -2.21355527852212    3.00995155428816
H         5.60807294542130   -0.80054564798723    3.84107563018478
H         2.94244194874015    1.78729646153765    1.77224428187348
H         0.58039696891503    0.74964599716630    3.22077149457982
H         0.74706369030950    0.80730128338159    1.59424003407295
