32
 energy: -49.312232366358 gnorm: 0.156104163701 xtb: 6.4.1 (79825abcba525fcdf90b791dcacef51065a7a4e7)
C         3.82028748816934   -1.38526529263572   -0.37110365194178
C         2.92421085322234   -0.37385044254589    0.33345915956011
C         2.98198983380483   -0.43657414399711    1.88390392228322
C         2.19689113094044   -1.63961223518737    2.48880390483661
N         2.30420372806300   -1.74874034003806    3.96146366003249
C         2.12306557728127   -3.14329909782074    4.33873839359401
C         3.59121134804659   -1.14753215560882    4.41975430077855
C         4.69789110793331   -1.28241737504925    3.33713112981046
O         4.40732837082978   -0.42977840025754    2.19285940410453
C         3.46746376062768    0.32433699621654    4.64403984681060
C         2.87706331981392    1.20419131886780    3.78558888222717
O         2.64129844690408    2.36153505468117    4.45173551173661
N         3.07555307144767    2.17556647370640    5.77600036843389
N         3.55479256791942    0.93317628029239    5.85844162075393
C         2.48912736562365    1.01711779955250    2.36666729040310
N         1.03691377474869    1.27769263749872    2.34454797531391
H         3.54000432870953   -2.42578217466215   -0.17299567148592
H         4.82220158090660   -1.11092564588120   -0.03243507468672
H         3.77612506405201   -1.28362639942364   -1.45945439672086
H         1.90181590064746   -0.60227172973596    0.01234993789375
H         3.22673156088078    0.62216485117236   -0.01301710949182
H         2.58125923439741   -2.52072589115221    1.95779306197855
H         1.10770712576367   -1.58134255224026    2.38247066036761
H         2.39418478776746   -3.19379680540866    5.40002488411400
H         2.58055513479635   -3.76914088281120    3.56618168525658
H         1.06719347681711   -3.40527831720106    4.21562618379985
H         4.01702788125998   -1.63749443142231    5.30342277029298
H         4.71245296428186   -2.33481219589180    3.03230287552342
H         5.66324492409128   -0.92707195807851    3.71507424725007
H         2.82927906057832    1.86198405450126    1.76140385268738
H         0.48638712436114    0.47308553902956    2.66579250536818
H         0.83031810388704    1.39174474067176    1.35571069481858
