32
 energy: -49.307101472408 gnorm: 0.152537595424 xtb: 6.4.1 (79825abcba525fcdf90b791dcacef51065a7a4e7)
C         3.67669182528269   -1.51091182320850   -0.48126271127630
C         2.93495467736686   -0.41081246335919    0.26835684835355
C         3.05698240963183   -0.37316559037357    1.81588506212738
C         2.37417298566694   -1.64508572297515    2.40374141159535
N         2.37725203826975   -1.71108468777563    3.88285815858661
C         2.04473544946061   -3.04966642334359    4.34930540936337
C         3.62604687214168   -1.11025705097372    4.43728383369828
C         4.70756465650885   -1.14371403603979    3.32184358566089
O         4.45788832741390   -0.24740139263665    2.20154760570613
C         3.33804044288604    0.30780681247559    4.80898726934250
C         2.91474910850386    1.15689711812723    3.82943406998517
O         2.72088313675399    2.34974852185967    4.44449703998240
N         3.01745025139998    2.24466876309560    5.81484188451706
N         3.48286040277914    1.00395090610433    5.96980328733951
C         2.45894385873839    0.98933662394957    2.42836506985067
N         0.99225808434920    1.11684179348619    2.32892621427927
H         3.36519170607219   -2.55713693287777   -0.38712719704275
H         4.65610625745905   -1.49726489154278    0.00283606677932
H         3.80114942912142   -1.25361774378929   -1.53724480775479
H         1.90076934774014   -0.51889695404979   -0.07712440791283
H         3.20965598836168    0.59351592346282   -0.07729431819167
H         2.90171308759045   -2.55279006228959    2.08148855458409
H         1.33893955330224   -1.76071083710813    2.06323225127184
H         2.76884216341682   -3.48152241338261    5.05041490773478
H         1.92402341119876   -3.76087376216135    3.52624330606131
H         1.11074315983248   -3.02868112936248    4.92015883958393
H         3.98244161790217   -1.80317271226078    5.20871327542891
H         4.67488973041014   -2.18085926974951    2.96980767029291
H         5.70957513055641   -0.79964020863665    3.60221399037347
H         2.92540192156188    1.86882701615356    1.97586144972146
H         0.57805635981696    0.37823363834500    2.90906856692746
H         0.63340475455694    0.95035699399968    1.39244561430497
