32
 energy: -49.315786051058 gnorm: 0.148003950046 xtb: 6.4.1 (79825abcba525fcdf90b791dcacef51065a7a4e7)
C         3.76324219609345   -1.51654713461978   -0.46258669026072
C         2.99361753010338   -0.45736409540743    0.31724100673027
C         3.07934009079415   -0.40236609107208    1.86668557717251
C         2.33121801738657   -1.63242053118601    2.46406656692138
N         2.33022433134161   -1.72598883414224    3.94169834765490
C         2.24021371035398   -3.11861223884149    4.35695673699755
C         3.58397873870616   -1.12870135852514    4.48870637429808
C         4.75692555848202   -1.22107369256842    3.47348711283726
O         4.47973430510261   -0.44674141195382    2.27167505278297
C         3.23460677483255    0.31168777483529    4.67641534099386
C         2.84720370424639    1.23895866984443    3.75460087157537
O         2.63695633545966    2.40220030913199    4.41901479013856
N         2.95925730070366    2.23582970480457    5.77742625523081
N         3.31604245432453    0.95388118394153    5.87392906676422
C         2.44740713122690    0.99723648888513    2.34727633212018
N         1.00639316964561    1.29234029966198    2.23020669020317
H         3.22447846474475   -2.46953585490455   -0.50760824611148
H         4.76548112308770   -1.69015570605772   -0.06362843608147
H         3.88761717825258   -1.13874078403363   -1.48169480573468
H         1.92363432667254   -0.41144881233905    0.08571005378051
H         3.38262288103410    0.52893890442995    0.03529725526813
H         2.77273252782612   -2.54051486974422    2.03220751795800
H         1.26567267753343   -1.55651791402902    2.21937116837272
H         1.41491151205719   -3.67832839048506    3.90090984173352
H         2.18693169169527   -3.11061765694981    5.45007869587969
H         2.99982784525179   -3.79758106378749    3.95615339347232
H         3.87850450047572   -1.53848594081893    5.46214558335870
H         4.87707224671394   -2.24648180668099    3.10637658149186
H         5.66718778630362   -0.92305437007423    4.00605308146922
H         2.91096251724326    1.72185963334725    1.67208473211162
H         0.32079434911806    0.62571732092763    2.60335314408671
H         0.71887823895168    1.47143883017612    1.27169341812725
