32
 energy: -49.324716401706 gnorm: 0.132932493004 xtb: 6.4.1 (79825abcba525fcdf90b791dcacef51065a7a4e7)
C         3.57843076865241   -1.40876507808784   -0.53009503341489
C         3.20885724301550   -0.18835248269349    0.30436922311757
C         3.12571205162876   -0.39204843490192    1.84149201572393
C         2.48333455375087   -1.71299503482932    2.36306259107055
N         2.41795907385721   -1.63402044711835    3.84010042721435
C         1.99369590221009   -2.87571577821387    4.47107971310667
C         3.67978623311699   -1.09495327301444    4.42752619820640
C         4.87067991160947   -1.11703901487630    3.42938216584263
O         4.54310374235271   -0.44144561157838    2.18156602888147
C         3.29093581942210    0.31575069327121    4.72873371933773
C         2.69662839543112    1.14088749285885    3.82010709853377
O         2.47977230246975    2.33559259384019    4.42379087201974
N         2.99200516264284    2.20948029503934    5.72707594847436
N         3.49097445364589    0.98395789405437    5.89773626453849
C         2.32902166443670    0.88685542021715    2.40618973817770
N         0.85890180169068    0.76603089602848    2.36795552846697
H         2.69175322721762   -2.02242124981773   -0.72428525859307
H         4.37147255727815   -1.97472225141487   -0.03555717420218
H         3.97928398761430   -1.10354800190707   -1.50114980098513
H         2.30485061715403    0.27801343276408   -0.10288218487828
H         3.91047398466732    0.64391734472696    0.16772393659045
H         3.10489074592335   -2.53538682366690    1.98436445340459
H         1.47756837109145   -1.95088334967426    1.99855271191621
H         0.92380252684828   -2.99869970523727    4.26471164145522
H         2.05979208387449   -2.87510866673102    5.56353082389915
H         2.60623760817357   -3.68965883804454    4.06990023261011
H         3.95258115022375   -1.65490887501201    5.32990382463753
H         5.03642833988673   -2.18970781156775    3.27912810500460
H         5.80939995087527   -0.69875668408900    3.80999211358459
H         2.64704482769358    1.75202653936647    1.81781383448452
H         0.63805746983579   -0.13301437806395    2.81136911094985
H         0.60300583631980    0.70268295609831    1.38612401802608
