32
 energy: -49.320064294747 gnorm: 0.145271678335 xtb: 6.4.1 (79825abcba525fcdf90b791dcacef51065a7a4e7)
C         3.70056643268517   -1.51320259492389   -0.25532737686553
C         2.97780155319472   -0.28556064192537    0.28580870247317
C         2.95005251639972   -0.39113441733583    1.83475537616779
C         2.18739554999896   -1.57967199943492    2.49454123842344
N         2.39546839770133   -1.78524933539827    3.94595273743546
C         2.19119899183912   -3.18898688512462    4.27418478991403
C         3.66240550522807   -1.14486743427774    4.40709435828953
C         4.77422183842588   -1.14867589216571    3.32134256004402
O         4.36397429286452   -0.33205890025646    2.18749453461184
C         3.35948176747659    0.27621402721502    4.75462991048229
C         2.77803381809327    1.13847000899588    3.87253735877594
O         2.61694704846038    2.35030072437707    4.45930673622540
N         3.23366486341055    2.22683829750327    5.71678634673467
N         3.61327071460647    0.96146583692686    5.90315260726209
C         2.37348608927255    0.97705109184188    2.45510505092099
N         0.94115888934067    1.24020953639209    2.21740937880088
H         3.12619271410704   -2.44195027278116   -0.16586573308488
H         4.67868523885213   -1.62495347627980    0.21857750498533
H         3.70851281429030   -1.47829863704143   -1.34871966593867
H         1.99820890007926   -0.23965309267242   -0.20293415747561
H         3.46963679985640    0.63892339811826   -0.04135852701249
H         2.39858346145203   -2.53855326160122    2.00258695284073
H         1.11345547273456   -1.39177978743529    2.38330659774000
H         2.23880315817562   -3.25056752944362    5.36795182489725
H         2.89142493492782   -3.90530143622758    3.83328163544793
H         1.19374768047344   -3.49705163963437    3.94427176041781
H         4.03422902782964   -1.70107151246558    5.27579281557768
H         5.01814398780689   -2.14210879889241    2.92858282415072
H         5.67321267395504   -0.65301389023052    3.70494914292622
H         2.86236618061953    1.77289691311214    1.88635933277400
H         0.48377946805222    0.39720680228754    2.58322447306031
H         0.81986214186505    1.23893029314565    1.20806588855112
