32
 energy: -49.312083909174 gnorm: 0.143629992093 xtb: 6.4.1 (79825abcba525fcdf90b791dcacef51065a7a4e7)
C         3.86592276091933   -1.44257891310954   -0.31156911656445
C         2.93055801526587   -0.39316839033529    0.27677808471164
C         2.98135155355313   -0.32303110238148    1.82714978000472
C         2.25181345530372   -1.60756846161556    2.32446510814500
N         2.26026726867922   -1.74903994476285    3.79825818498940
C         1.96134311635267   -3.05751346889568    4.36260095509918
C         3.52820517817651   -1.18139611612154    4.34413742259824
C         4.65036704115117   -1.28028142026388    3.27363218302069
O         4.40259002631092   -0.39089880833963    2.14740715271622
C         3.28010927139079    0.23804280657654    4.73867236736044
C         2.88981986461661    1.18843737697592    3.84196801739966
O         2.88800587373166    2.38458385404521    4.48072558990284
N         3.30325294708956    2.15066887308221    5.80348499713422
N         3.56205797625678    0.84730360274834    5.92289762365089
C         2.44387384363547    1.06740391791119    2.43295690617127
N         0.98813995612204    1.30828208848094    2.42158347484383
H         3.77016639336972   -1.27108086015165   -1.38948374197020
H         3.58561257927331   -2.45473581096397   -0.01031322924376
H         4.92566499451872   -1.38983126702649   -0.04520055821516
H         1.91274242777461   -0.66656777266722   -0.02302695155808
H         3.19120823513992    0.57637586353391   -0.16555261287580
H         2.61428362983355   -2.52689306427598    1.84537193777981
H         1.20313935296898   -1.52932186921001    2.01594604346036
H         1.91600280663029   -3.80447811239917    3.56111936791420
H         1.00691409093549   -2.89916207589581    4.87427328625517
H         2.70349124698771   -3.43368639216205    5.07419472918622
H         3.90716794173638   -1.62850087602314    5.27081820578472
H         4.96460326819256   -2.23482236636928    2.83685496810263
H         5.63868827601613   -0.97385794782322    3.63466561731096
H         2.84243082219533    1.89537150258033    1.84010954167675
H         0.49728948842006    0.80633894032782    3.17044201531267
H         0.54966008952349    0.91173053258164    1.59455803133097
