32
 energy: -49.317954212542 gnorm: 0.147308531305 xtb: 6.4.1 (79825abcba525fcdf90b791dcacef51065a7a4e7)
C         3.73968658484124   -1.45242379937369   -0.33481780292713
C         2.97618354429826   -0.29151512702010    0.29102263269771
C         3.04957236966116   -0.27454005858501    1.84198283839741
C         2.21696254132055   -1.45577101693384    2.42596821207815
N         2.18799508297919   -1.74275795830258    3.87819101492111
C         2.04718888896997   -3.16046181588566    4.17857538777578
C         3.41915522977245   -1.18720061693605    4.51338463965781
C         4.59715566571269   -1.27901317115890    3.50398261047985
O         4.41760695007683   -0.46352108929880    2.31087212956592
C         3.22841051759683    0.27243192711863    4.76854253176791
C         2.83717831411359    1.17807419574318    3.82705232930597
O         3.01528059955980    2.41911336318598    4.34365885223569
N         3.48939444924025    2.26622183124071    5.65845124657441
N         3.55343619737327    0.95569914714880    5.90017297628518
C         2.45591474871023    1.11486036699675    2.39545483225262
N         0.98940090325996    1.02187716842623    2.26127550299417
H         3.37528061710242   -2.34991254161501    0.17723986236246
H         4.81056171263241   -1.28378940851892   -0.19851153620957
H         3.57082309592898   -1.52123057587847   -1.41349239590797
H         1.90128709863896   -0.36127785887387    0.09024999943562
H         3.44421103005014    0.62029893688818   -0.10032942525538
H         2.50489201854493   -2.38852545703526    1.92283960027490
H         1.16856499294540   -1.39962018558748    2.11174921119736
H         1.89105084970157   -3.28393515894750    5.25688884196020
H         2.96471428902257   -3.64912163407554    3.83626379738606
H         1.19190189442883   -3.56047755357552    3.62438481941453
H         3.57498440339544   -1.77694255287564    5.42452372143059
H         4.79952451401310   -2.29671120369135    3.15183955918079
H         5.50911613463162   -0.86431649477714    3.94825068496470
H         2.87661344390679    1.97159977495641    1.86173563240052
H         0.62084736574591    0.34390449904756    2.93817400001982
H         0.73103527531738    0.75703458737795    1.31438880042486
