32
 energy: -49.323970156720 gnorm: 0.138801968962 xtb: 6.4.1 (79825abcba525fcdf90b791dcacef51065a7a4e7)
C         4.12404014794220   -0.11392440735429   -0.37780195373412
C         2.91344493585613   -0.71733724312901    0.32410563929278
C         2.90628992558620   -0.62717654975433    1.87425772473668
C         2.08466859069063   -1.78864195906750    2.51106311557669
N         2.00974314849445   -1.81783086407425    3.98946965057734
C         1.79200910983946   -3.17923190953449    4.45757270600974
C         3.24733516966675   -1.23126686364572    4.58291626370478
C         4.47331551096577   -1.33183636920163    3.63325051363960
O         4.29130345580977   -0.73077041888593    2.31933687687871
C         3.16481369995529    0.25860406342999    4.65701838581743
C         2.97126270390975    1.15588550871737    3.64851533413605
O         3.35348880257396    2.37643263041994    4.09901379875028
N         3.82215546999455    2.21352622996950    5.41455622017804
N         3.72461513818166    0.91600978676942    5.70940773416896
C         2.43680902289654    0.85210933731282    2.29910487305594
N         0.98180258431261    1.07514040670717    2.19650747368926
H         3.97894262944175    0.05114752384638   -1.45119785934308
H         4.98727891738026   -0.77803131254112   -0.29078850550295
H         4.38667122723770    0.85167057902746    0.06428329338239
H         2.81379092567807   -1.77091031420691    0.04014839485744
H         2.00605584750670   -0.18040846501139    0.02085066420387
H         2.53144151207420   -2.69998964062427    2.09164447881361
H         1.01884388372982   -1.75517776447673    2.25823558729763
H         0.79212829186406   -3.46611011177871    4.11069533797738
H         1.70041533469529   -3.15527566536782    5.54791906492335
H         2.57452103557416   -3.88697049374461    4.16527696348395
H         3.42378922694320   -1.71933482744193    5.54878703827863
H         4.76133791535966   -2.37096538857212    3.43851697727602
H         5.29363716640656   -0.81814241670494    4.14726438907552
H         2.88028890152530    1.58532290240279    1.61971583517371
H         0.49552583953099    0.66232158066281    3.00073739648488
H         0.69078146705287    0.60965212053027    1.34086959212241
