32
 energy: -49.322735118733 gnorm: 0.137567182580 xtb: 6.4.1 (79825abcba525fcdf90b791dcacef51065a7a4e7)
C         3.53857282759884   -1.46981724007408   -0.47575087316760
C         2.98256009433932   -0.25533774127927    0.25787810463180
C         3.07870830191587   -0.37083687862089    1.80337708880490
C         2.43317537283086   -1.67982439871504    2.35057316500826
N         2.39474798516411   -1.69081159441608    3.83062530024246
C         2.09646557222215   -3.02669133863460    4.32700650676016
C         3.62969645902664   -1.09849825972247    4.42386842626677
C         4.76821256308271   -1.16953099186645    3.36852844350109
O         4.47782822770642   -0.33175398155725    2.21328633496855
C         3.31968634411163    0.31273882155291    4.80376304533325
C         2.72535862683799    1.14215586235003    3.89905517838468
O         2.66690653170764    2.36874710291704    4.47424055762846
N         3.20936060099562    2.24881319456774    5.76582804777594
N         3.57056178352385    0.97978769125519    5.96358656033022
C         2.40512568662275    0.93130232131799    2.46663731191846
N         0.93878821049444    0.99940607157035    2.31654029213129
H         2.76402280174001   -2.23056139564337   -0.32803021626127
H         4.49005790599293   -1.72481993755783   -0.00305618805276
H         3.56252600873424   -1.27538806022622   -1.55204621719276
H         1.93387903738085   -0.15181457002664   -0.04233823652327
H         3.50323423744444    0.67705842550108    0.00658768442051
H         3.05630235569828   -2.47506584218508    1.92001951598285
H         1.39399662092329   -1.88445190755410    2.06904337451777
H         1.96702915174487   -3.09375032844553    5.41380638014882
H         2.84888445617485   -3.77092568419157    4.04808077299469
H         1.17714518187373   -3.31904653655137    3.80928642761517
H         4.02228811971223   -1.62397870673174    5.30250078054700
H         4.77565067524169   -2.21655688845606    3.04549807337000
H         5.66010844640813   -0.73039584980633    3.82972408340620
H         2.86970596336909    1.70024413231885    1.84314740721243
H         0.49558680348807    0.38499612328704    3.00917522834219
H         0.70986519664584    0.68598072637014    1.37694057610900
