32
 energy: -49.314977629723 gnorm: 0.151795716705 xtb: 6.4.1 (79825abcba525fcdf90b791dcacef51065a7a4e7)
C         3.72384469586937   -1.43053187330207   -0.25346702791158
C         3.06654589729316   -0.14753374959798    0.24069509669615
C         3.03581184971939   -0.30552299297291    1.78511941334448
C         2.32562911957608   -1.59996269447083    2.28477028270421
N         2.37395100334975   -1.66509877344331    3.76313897568029
C         1.98534568203092   -2.93676266228840    4.35626480442586
C         3.65129785780470   -1.16497945416108    4.35147213693758
C         4.79632808452548   -1.19620733221157    3.30126375426441
O         4.41407762744368   -0.25345283878888    2.25920988578553
C         3.34002482627572    0.26423158850029    4.65557933426000
C         2.84135562712322    1.17548650499543    3.77206482198364
O         2.76714597562696    2.37293903501596    4.40403104652025
N         3.24650463437891    2.17307815562623    5.71059513212729
N         3.57796209181058    0.88745853190691    5.84219523828535
C         2.29653159716920    0.98147244265291    2.40665110063184
N         0.85446369227448    0.75220876264899    2.61923324256341
H         3.14530721117830   -2.36012020902772   -0.21296135287272
H         4.60024468211360   -1.66594951721568    0.35504927808097
H         4.15462105419033   -1.26085523481948   -1.24464294476987
H         2.02346525193475   -0.16496097116667   -0.09435403574133
H         3.62899394824172    0.74187585178572   -0.06948840059935
H         2.68859033832440   -2.58612880178205    1.96569632088443
H         1.29196590899452   -1.56838435241491    1.92204849259222
H         1.72572298221544   -2.77542452748983    5.40933209628134
H         2.71356706513022   -3.71919387090605    4.12107653090792
H         1.05296927473893   -3.25413170134747    3.87813642265931
H         3.88986461801495   -1.75677047662497    5.24316827819011
H         4.87491825600617   -2.24980632152227    3.01071268074090
H         5.78919257869382   -0.82814377644909    3.58369723104407
H         2.34980899980466    1.80644586188794    1.69081147413193
H         0.72565279001843    0.02402741792784    3.33115311811031
H         0.38588091045738    0.63019896087968    1.72534700508489
