32
 energy: -49.316282799136 gnorm: 0.142935163047 xtb: 6.4.1 (79825abcba525fcdf90b791dcacef51065a7a4e7)
C         3.56989426550767   -1.43397065610964   -0.49692709718229
C         3.16880460022333   -0.19241048330753    0.29045940734041
C         3.14676767065527   -0.41427343729751    1.82715808881950
C         2.41651296079321   -1.70291571241678    2.31266170516259
N         2.43706428555258   -1.72966797932788    3.79286900328132
C         1.75585546082533   -2.86356916786734    4.40128005120454
C         3.67029945712882   -1.18963166382683    4.43735483807874
C         4.83759114149216   -1.19428658793266    3.41148180331871
O         4.54824448167019   -0.39315266161419    2.23027875519700
C         3.38201535701260    0.23839755385327    4.76847582088428
C         2.76374003034553    1.02667753903084    3.84327061878596
O         2.47430222738386    2.20367813639031    4.45128073268692
N         3.15440185501486    2.22225497288929    5.68171082101422
N         3.61839067655232    0.98725350978105    5.88042218624135
C         2.40729872119157    0.89042889676498    2.41036615387854
N         0.94117753968702    1.05487664093778    2.43790605317264
H         2.92086096793148   -2.28087049896778   -0.24793465142370
H         4.56247226310773   -1.66291448809263   -0.10175101313696
H         3.61112903905891   -1.24041901012802   -1.57285719788027
H         2.19243241453078    0.13683359580082   -0.08219934593529
H         3.94953500910994    0.56783053012252    0.16355518811122
H         2.85948345995286   -2.62733138377702    1.91857360734717
H         1.37713409262963   -1.64967965467321    1.96932309182896
H         1.73144578258973   -2.60607972443322    5.46687285008986
H         2.39974405231891   -3.72599226692559    4.20265381690862
H         0.80665711259333   -3.00555885740215    3.87448118914391
H         4.07425136320558   -1.72592219195230    5.30422740040178
H         5.02109175778648   -2.23042855112727    3.10586026980864
H         5.78389043599395   -0.79489315378888    3.79360989580957
H         2.80107424576096    1.76214972412507    1.88037593012839
H         0.47816567295346    0.30568371288883    2.96516328798070
H         0.59403865394168    1.09767821213281    1.48336352501381
