32
 energy: -49.309915203250 gnorm: 0.148143651513 xtb: 6.4.1 (79825abcba525fcdf90b791dcacef51065a7a4e7)
C         3.37720639200441   -1.57264937880595   -0.47228229494513
C         3.09610365897407   -0.26585424396878    0.25955772516536
C         3.16308244486449   -0.32941682953799    1.80959813568170
C         2.43184966079053   -1.59502900107786    2.35099363449148
N         2.37060890199075   -1.59297785184885    3.83031681552785
C         2.17474664305303   -2.99776711508708    4.15917317129650
C         3.63435649850404   -1.10627591243735    4.45795801249673
C         4.78258982353824   -1.21866198504702    3.41683523116659
O         4.52904038159105   -0.29533481040081    2.31958534236395
C         3.31120913268812    0.31617864432132    4.78078166293753
C         2.77547970991226    1.16980187920909    3.86210013501171
O         2.72679881892237    2.40536522610568    4.41869184523685
N         3.18720020090441    2.26090347142440    5.73929783281870
N         3.45870564597464    0.97402109055679    5.96339375626645
C         2.39381933150742    0.93083513172115    2.44928041515440
N         0.91910927264771    0.88976543949736    2.47854400819632
H         2.55605695953125   -2.27146591704239   -0.27773189431400
H         4.21935921063112   -2.14471942010859   -0.07566536215605
H         3.60205514684451   -1.33422909597829   -1.51601929928834
H         2.07666487828285    0.05965699282741    0.02425820362268
H         3.76321961388168    0.52492127503761   -0.10546477805027
H         2.83174202338122   -2.54407627856012    1.96959096679973
H         1.40746560055027   -1.53712696176758    1.96588511201218
H         1.71449686954194   -3.04204587891250    5.15345391660084
H         3.12420697470819   -3.54214005333665    4.15787370900541
H         1.41103094628121   -3.50858937748473    3.56381229482031
H         3.71574845703186   -1.72229110460199    5.36137007535612
H         4.83776599771952   -2.20344286720907    2.93952047666759
H         5.73328374018954   -0.79022268288173    3.75394084793349
H         2.65679516175796    1.91917427069650    2.06214288613414
H         0.61945955994042    0.07778991623200    3.03042807836818
H         0.65016804634337    0.69084830373909    1.51854848097518
