32
 energy: -49.317494151195 gnorm: 0.150181414721 xtb: 6.4.1 (79825abcba525fcdf90b791dcacef51065a7a4e7)
C         4.11971234773185    0.18851970563132   -0.25107508688251
C         3.02916429895816   -0.72368189278647    0.29748237663011
C         2.99258437788101   -0.68220032778932    1.84928546743210
C         2.05490317439306   -1.77423947418208    2.44744021639738
N         2.14111727708551   -1.61349044202252    3.91675249784585
C         1.45563496488081   -2.71086973991531    4.58444558929974
C         3.47000149051153   -1.25981284670799    4.49713954803439
C         4.59107026541937   -1.66144071939108    3.49868729904995
O         4.36950703064499   -0.95916298781727    2.24230621718685
C         3.40350346063092    0.22810986287929    4.61410236222805
C         2.93882183403421    1.06120015309174    3.63958405820032
O         3.14591733519717    2.32916780811795    4.07334714186509
N         3.72835540600668    2.24948792820210    5.35055339487474
N         3.77027507973623    0.96257442613035    5.69997696186116
C         2.42238455790304    0.75864741610854    2.28290293385425
N         0.95272510602653    0.76436837325831    2.41474070065368
H         4.27391405052390    0.04994086603879   -1.32694614971278
H         5.03710981904810   -0.01611684365964    0.30596733369983
H         3.79327721949008    1.23201368133444   -0.21435235415096
H         3.22100376093529   -1.74897063475298   -0.03801646780394
H         2.05664395311016   -0.34914276464077   -0.04535237950024
H         2.63242231363417   -2.67579050634554    2.20300204403626
H         1.02194003211183   -1.80141515903816    2.08237509385658
H         0.38628222146197   -2.80278976769232    4.35990143392941
H         1.54889630847237   -2.65580556979075    5.67352261184474
H         1.85794812359383   -3.68014688507213    4.27251361265920
H         3.74871719183194   -1.77388730732406    5.42466190372946
H         4.49208015296280   -2.74692120589946    3.38643650210782
H         5.60474184139468   -1.38991814328581    3.81454292618076
H         2.73997564307823    1.52403082543052    1.56934135103249
H         0.61154135355281    0.28621460491400    3.25654402975063
H         0.54441758408993    0.45225992792380    1.53760781196410
