32
 energy: -49.312451038331 gnorm: 0.153494396815 xtb: 6.4.1 (79825abcba525fcdf90b791dcacef51065a7a4e7)
C         3.62565394415429   -1.30419298272104   -0.52347998744651
C         2.93372092357504   -0.23677304394714    0.31566568142417
C         2.97505904528389   -0.36941567339864    1.86222597129552
C         2.20924212792343   -1.64039752954796    2.33942006142091
N         2.21520879634381   -1.64314527257346    3.81999716507139
C         1.87335921691406   -2.94435580027999    4.37671201653115
C         3.55381826640516   -1.26307430037040    4.35994251134927
C         4.66340201215171   -1.37365493391205    3.27753645009855
O         4.36566540536097   -0.33553639332182    2.30058173086217
C         3.41331755541168    0.18238459482872    4.71054831121422
C         2.81649064515254    1.09707542988079    3.89397455430044
O         2.98029420980575    2.28278865442757    4.53118211734761
N         3.59906574017537    2.08848369966447    5.77866204882029
N         3.93359645883286    0.79727055465568    5.80795816537783
C         2.38399757161511    0.99403510863940    2.47935031746733
N         0.93072412804441    1.23556056114167    2.39583640801212
H         3.40592927229407   -1.14120899067085   -1.58444091479267
H         3.10659811634841   -2.23725710443955   -0.29161173295283
H         4.69584904880086   -1.47147515563426   -0.37022452172908
H         1.88477825000040   -0.11876519249798    0.02177408386558
H         3.41589051845403    0.73102862742886    0.12996846241096
H         2.70331378921376   -2.55421656833488    1.98318897295308
H         1.12961212992134   -1.63699992835648    2.15124077951862
H         1.06940355577042   -3.39844399303898    3.78523600634647
H         1.45453192171148   -2.71129202708781    5.36062435046567
H         2.74205880985210   -3.60249540297019    4.48096604577896
H         3.71654759985818   -1.87834570136912    5.25281035726314
H         4.88287308925476   -2.29955679680331    2.73420841470799
H         5.64176211570308   -1.05461173846999    3.65442145108071
H         3.01422288766340    1.74085281641550    1.98850882415829
H         0.45266312705607    0.66827399894446    3.10528257268086
H         0.72037707160385    1.00423118484615    1.42850520474669
