32
 energy: -49.311496719265 gnorm: 0.151722995618 xtb: 6.4.1 (79825abcba525fcdf90b791dcacef51065a7a4e7)
C         3.17698085257104   -1.50654387839119   -0.47209380331356
C         3.28277152911045   -0.20012835947638    0.30534359904795
C         3.24921899466331   -0.32232447581042    1.85295271651037
C         2.46388586230906   -1.56232112121990    2.37759052146629
N         2.35145623005344   -1.65618811345665    3.85092017503082
C         2.08622556836058   -3.00900901401043    4.31939610432825
C         3.61269929356454   -1.13675105106296    4.45699055339681
C         4.77175588731971   -1.29743453018524    3.43435881350062
O         4.63155044017601   -0.37674349960785    2.31478381997489
C         3.39371508356791    0.31501744632100    4.73345111686427
C         2.79753420741271    1.13529086554933    3.82165384073240
O         2.60041049772603    2.34273567107654    4.40646170185059
N         2.94139640743843    2.17999072205815    5.76074435214902
N         3.34290487716298    0.92195991923259    5.95087562391833
C         2.52622960941951    1.01959808874794    2.36843730067121
N         1.05264230582239    1.00582328216872    2.29318071685267
H         3.31197924628017   -1.16053333264991   -1.50288618842813
H         2.20998522220524   -2.00761193190974   -0.38468241603792
H         3.96884228428062   -2.20956669938170   -0.19731659499803
H         2.48825360653402    0.45194909465694   -0.07428137379148
H         4.21195938503281    0.32323306886267    0.04782895063870
H         2.94548404549642   -2.36697307154473    1.80603906848729
H         1.42643635445997   -1.44774710314640    2.04353178793508
H         1.02130208479718   -3.16363822062060    4.53013870180458
H         2.65207376108130   -3.31554059687305    5.20464901354859
H         2.24402730135570   -3.78485743341858    3.56321261975634
H         3.74155090979111   -1.67366172741496    5.40429035335359
H         4.75307090279712   -2.35587955244181    3.15149457430005
H         5.76367048971043   -1.01068584201372    3.80164612044206
H         2.93258647034835    1.84858426418006    1.78234684630365
H         0.70795173198738    0.55615238366772    3.14913323881040
H         0.83924109971823    0.49254773198974    1.44200684645407
