32
 energy: -49.311407740137 gnorm: 0.151551739474 xtb: 6.4.1 (79825abcba525fcdf90b791dcacef51065a7a4e7)
C         3.52107050935837   -1.53965523643298   -0.44063744018927
C         2.93026300810459   -0.34630420682360    0.30043063909673
C         3.08317209497876   -0.39981661732969    1.84474500307593
C         2.31179397319115   -1.63694385860721    2.39617639434816
N         2.35488976737077   -1.69605703615552    3.87495970138211
C         1.97539181674502   -2.96858223676791    4.47212156523654
C         3.65993447000131   -1.15570949301245    4.35740457642355
C         4.78554952026840   -1.17843540720466    3.28619903737888
O         4.51229268511691   -0.33754267756249    2.12904398260910
C         3.39682823883849    0.26058909132273    4.75349760376056
C         3.02125498794109    1.22424542465950    3.86469753708931
O         2.56752098638132    2.29237387285650    4.56613035135476
N         2.85842807177253    2.03444479889394    5.91730926612162
N         3.36304832683844    0.80229069870305    6.00189719168420
C         2.62923401707514    1.02067647490233    2.44917342992647
N         1.20646530364231    1.29421529910064    2.16949771192208
H         3.25659677965947   -2.50931807015718   -0.00441681195669
H         4.60397780669362   -1.58775651119809   -0.30356612270371
H         3.25632590191820   -1.51901465054937   -1.50189725053394
H         1.86386236570514   -0.22540397223703    0.07963286437622
H         3.33942688255376    0.57818177338585   -0.12562292424493
H         2.76410907967099   -2.58069329409959    2.06327900642666
H         1.29061122858626   -1.49853596983852    2.02327832271037
H         1.66005316216113   -2.75543716796380    5.50047722854571
H         2.83400270033888   -3.64656540243760    4.44138595351109
H         1.19466635056070   -3.47012599228634    3.89110760410816
H         3.96621385355324   -1.69676752270056    5.26056672368946
H         4.93957974466462   -2.18157699850431    2.87310243679204
H         5.75344059409445   -0.75030078886919    3.57064053265717
H         3.14619823989368    1.76822316839265    1.84108797369667
H         0.68709614622761    0.45921703726626    2.46395281187316
H         1.07984909476880    1.36114479291062    1.16302983073896
