32
 energy: -49.314786068925 gnorm: 0.148095147377 xtb: 6.4.1 (79825abcba525fcdf90b791dcacef51065a7a4e7)
C         3.46614160665846   -1.32232042420201   -0.53735885361693
C         3.04762946545384   -0.11536398881350    0.29355981162648
C         3.08295315421860   -0.34087799690367    1.82947884613359
C         2.45523976685733   -1.68661963272798    2.30333531413328
N         2.23670167718746   -1.62014569097160    3.76620031537611
C         1.59355262610690   -2.83172033447137    4.25444980357587
C         3.53681063760572   -1.27094384881266    4.41090565736545
C         4.70718257406238   -1.30424678087841    3.38908009490084
O         4.47523347647599   -0.41819468940520    2.25687472269306
C         3.38721548897675    0.18898406130330    4.69063418604957
C         2.96526073565482    1.16791577040006    3.84016299569608
O         3.08872372711304    2.39500607122087    4.40388916731164
N         3.58054968785423    2.14037301745598    5.69621576413918
N         3.67879088443181    0.82007376984974    5.86101567155433
C         2.41298589955334    0.97039387616142    2.47825004795743
N         0.95790431433007    0.95765813095393    2.72297069561620
H         3.05922067616330   -1.12334172622596   -1.53500790875594
H         3.02858895195224   -2.31332258606131   -0.39504624570550
H         4.55050107092101   -1.44960577590226   -0.60628719487503
H         1.99671410125381    0.02629943068585    0.01772068275574
H         3.63428126933408    0.76646063858647    0.00748984245589
H         3.03101237240127   -2.58013497352083    2.02731201535713
H         1.49925151533337   -1.82647248151345    1.78608145480926
H         0.51996923368080   -2.77174022248250    4.03949458765678
H         1.61981837693788   -2.84271030776338    5.34852833440794
H         2.03105471619462   -3.76667750920446    3.88961748656703
H         3.79182267951297   -1.85004656454200    5.30637291590352
H         4.84419387694798   -2.30038154445484    2.95363709864950
H         5.66080375446667   -1.06426009405422    3.87284903182477
H         2.66507196230240    1.83779591636981    1.86187978521842
H         0.86261815373525    0.38935941105727    3.57245721110939
H         0.53488981268712    0.47975132391638    1.93167262679465
