32
 energy: -49.311235266723 gnorm: 0.146827799639 xtb: 6.4.1 (79825abcba525fcdf90b791dcacef51065a7a4e7)
C         4.09346802214252   -0.81480084102561   -0.45704451553486
C         2.82058654700989   -0.60320060266402    0.35370832697111
C         3.06391588898201   -0.53381831054033    1.88574244544909
C         2.15810974754440   -1.62638362580849    2.53025844090995
N         2.28113624710813   -1.76840040275130    3.99887935630769
C         1.88612791239964   -3.08912414710342    4.46749281947069
C         3.56982186188932   -1.22813600992857    4.52354493458528
C         4.80361666976131   -1.25818025609025    3.57916432442133
O         4.45731054825096   -0.65856416805690    2.29802799231331
C         3.26719840868478    0.22201624668373    4.71717792796954
C         2.67139041758933    1.05447838142430    3.81624841811675
O         2.66012921348769    2.31964075057853    4.30411960087980
N         3.27982112556091    2.26488217891535    5.56500113097733
N         3.62547910804918    0.99423724502916    5.77943633352363
C         2.47083354951150    0.88590586344944    2.35673154166733
N         1.06620189152444    1.18101466113708    2.01433776386860
H         4.44252400023145   -1.84688598163634   -0.34110923848874
H         4.84212503758116   -0.05313066694930   -0.22647627791032
H         3.81594941531848   -0.66178896775374   -1.50411610706074
H         2.25838627091181   -1.51725706185710    0.13232519498575
H         2.33373654169784    0.33501766107439    0.05988081841833
H         2.47659052208111   -2.54266292127733    2.01540421294868
H         1.12627852290583   -1.42923365655291    2.21804037146400
H         0.85306901496875   -3.20947946800021    4.12009021513307
H         1.99705238742688   -3.19254166482143    5.55138353176568
H         2.44157743996216   -3.91937044210582    4.01936055544970
H         3.84391964004104   -1.72095909795486    5.46388982799474
H         5.04170849985708   -2.31904519308774    3.44298418712335
H         5.59377566581989   -0.62451097789860    3.99765130695021
H         3.04220121199914    1.63806814144466    1.80569897524957
H         0.36569680064999    0.58781785576362    2.47377261562418
H         0.89544684672316    1.38152088951749    1.03243716992242
