32
 energy: -49.314699978448 gnorm: 0.145346767513 xtb: 6.4.1 (79825abcba525fcdf90b791dcacef51065a7a4e7)
C         3.73850265527336   -1.40225717298070   -0.40930345919200
C         3.08974331621073   -0.19510082082765    0.25718506179241
C         3.09717444780720   -0.31383696480895    1.80540924716978
C         2.32297122294129   -1.55554578574858    2.34239452695989
N         2.21934841212030   -1.62836216277665    3.81755952818258
C         1.79212221622761   -2.89871314803076    4.38644223063980
C         3.52630988671281   -1.14373571275977    4.35128147323997
C         4.74220320277518   -1.37583522296547    3.41173887931392
O         4.45362757705614   -0.45282086972032    2.32291092619218
C         3.35839094724241    0.31572122325104    4.62295212153060
C         2.81831204422854    1.25524914341047    3.79514995709132
O         2.82265593247360    2.44237928596895    4.45050029900319
N         3.33794043847385    2.18907866642426    5.73391740730242
N         3.60463549152619    0.88570577896937    5.83438288023812
C         2.38790973072695    1.00301390402866    2.39874009448730
N         0.93472774840393    0.75635076515095    2.46753147272473
H         3.08760612926820   -2.27746927483013   -0.30529243947537
H         4.72341854830949   -1.62516998514644    0.00787882195208
H         3.89706273016350   -1.24093868966249   -1.47964133898563
H         2.10754102213018    0.02453941015145   -0.17596118490120
H         3.76309464282596    0.64761339797927    0.05708062573904
H         2.86451086647127   -2.45472318192213    2.01945884522896
H         1.30736940747813   -1.62683344978338    1.93681477461277
H         2.02206500693170   -2.79054152601919    5.45312394222922
H         2.34941497552643   -3.78797554602194    4.07586910591403
H         0.71157454048790   -3.03903800490235    4.27975918765460
H         3.81368408936764   -1.61334958274186    5.29950697383456
H         4.84849407728451   -2.41155387080005    3.07018903922472
H         5.66699004197303   -1.05688487867457    3.90576249105291
H         2.53161791835128    1.91089528596511    1.80633369682707
H         0.74503667170358   -0.18585646203620    2.82799376399161
H         0.63552320234730    0.71868056638201    1.49668317493012
