32
 energy: -49.315388851252 gnorm: 0.147771548294 xtb: 6.4.1 (79825abcba525fcdf90b791dcacef51065a7a4e7)
C         3.71012154232836   -1.58070274163833   -0.44016087810569
C         3.14850861777576   -0.35552015763431    0.27106386431306
C         3.09341709061215   -0.34263657279457    1.82282111215129
C         2.36217269052640   -1.60010606127850    2.38285389984956
N         2.38440368031658   -1.80422336574821    3.84913954427325
C         2.11722428998781   -3.15016279124359    4.33596970817439
C         3.58275969411416   -1.12577876005799    4.42492247953354
C         4.76813248246907   -1.08429620249251    3.42084201257396
O         4.43391352427663   -0.14259330419457    2.36146906313666
C         3.21437662854269    0.29971031029001    4.67847937657299
C         2.79836676135801    1.23044186121687    3.77275925720291
O         2.73759876014654    2.41762820698808    4.42519833812253
N         3.15693038661641    2.21503094484498    5.75183096815013
N         3.41785346697362    0.91261163128934    5.87682507187544
C         2.35761070556152    0.97540404159118    2.38009307882155
N         0.88219171800936    0.99646720530498    2.37727078270495
H         2.96303314375004   -2.38153567559448   -0.40843806246073
H         4.71898128994420   -1.83588742463057   -0.10718448452216
H         3.84258366368599   -1.45457165529069   -1.51873997110925
H         2.12893056861971   -0.07011806878047   -0.01104445600127
H         3.74092925434717    0.55841740884113    0.13928008329792
H         2.73952146006986   -2.44274975345065    1.78818412761017
H         1.30616479068442   -1.45951558563676    2.12574390270161
H         2.34355655247537   -4.02503145646966    3.71487134402137
H         1.03083201066652   -3.16594190481584    4.46758026165004
H         2.50796564314986   -3.30318862320612    5.34718674953352
H         3.78181230790307   -1.56575752848867    5.40932557749673
H         4.97720147072469   -2.07100258058247    2.99262728995660
H         5.74224280901614   -0.72481289194726    3.77141321885732
H         2.66808530109288    1.77698805331462    1.70413850380303
H         0.55443873800336    0.31724050808381    3.07361789556942
H         0.50377543723910    0.75585867929743    1.46491259053388
