32
 energy: -49.316471802918 gnorm: 0.149760355998 xtb: 6.4.1 (79825abcba525fcdf90b791dcacef51065a7a4e7)
C         3.86838973861072   -1.35653269547728   -0.34736868655929
C         3.04300679055117   -0.23927890627927    0.27937612080491
C         3.02801798372574   -0.33596255215464    1.82907907889290
C         2.39661286815604   -1.68315584479212    2.29381820919510
N         2.28057868314745   -1.64017759557439    3.76923023565990
C         1.75839240172286   -2.88007753312764    4.32592676161346
C         3.53495100752952   -1.13976133576069    4.40484321899691
C         4.69903992107436   -1.20917232848869    3.37766934911837
O         4.43614175690978   -0.38576075766974    2.20563878246708
C         3.33552176951323    0.30687190243532    4.72027394171755
C         2.77976730900718    1.16697331279478    3.81970916091875
O         2.86104787660735    2.38579962601544    4.40846787824049
N         3.42632315927322    2.23782868329186    5.68729830407722
N         3.70427088224617    0.94505789016527    5.86475024150471
C         2.27467368285463    0.94648153273292    2.44308535546539
N         0.81054271091111    0.80753426146048    2.56278074764909
H         3.32410853027532   -2.29565049253277   -0.49668892300662
H         4.73758892650988   -1.52748598397122    0.29220792429786
H         4.25593660382775   -1.22182879430817   -1.36149412964848
H         2.06954135284617   -0.23470014932196   -0.22353831805284
H         3.48182787380022    0.73239412513964    0.02072842688336
H         3.08920188772307   -2.48086619666660    1.99373275114237
H         1.37930401863526   -1.77942305455544    1.89778885193842
H         1.70260818341884   -2.73504714019796    5.41139392713027
H         2.22739770647781   -3.80518358070998    3.97659693619219
H         0.76736810157832   -2.95027896195094    3.86592869842413
H         3.74375149311496   -1.74092648298173    5.29773489381203
H         4.94702532502332   -2.23170750724064    3.07174089904550
H         5.67684907496475   -0.82882050401515    3.69427810038701
H         2.50703525844477    1.73250547941451    1.71919278897718
H         0.57153672084103    0.13474220393699    3.30027461938594
H         0.53858546103239    0.20338201482290    1.79172423922553
