32
 energy: -49.312940892210 gnorm: 0.143352265748 xtb: 6.4.1 (79825abcba525fcdf90b791dcacef51065a7a4e7)
C         3.89111419311094   -1.32785136139451   -0.43726286560946
C         3.16378773592529   -0.20044373487426    0.28541987993440
C         3.02921308195187   -0.36492169203155    1.82359681695358
C         2.40726641160690   -1.71011294027727    2.30653311122204
N         2.31580644977050   -1.72530746323277    3.78421910337976
C         1.87487052884397   -3.01374743957617    4.29942713669350
C         3.50194495604382   -1.13386787412960    4.47061903191307
C         4.75667016994131   -1.04849474070856    3.55772084132461
O         4.40994070477379   -0.42131420463856    2.28996654719545
C         3.22964825815883    0.32046258419593    4.67748541000848
C         2.74915566597094    1.19209782012460    3.74526588435078
O         2.85197507156805    2.43849924049184    4.26937712328040
N         3.35724595250594    2.29747866853303    5.57385147528668
N         3.47272760037770    0.99424195139843    5.83507646638679
C         2.21036840958679    0.89655691914586    2.39574999379955
N         0.77347008536565    0.58605747220515    2.52313174138690
H         3.38356668944465   -2.29044737376435   -0.30964919267520
H         4.84613120870011   -1.46736505671273    0.07485911528085
H         4.16890625003455   -1.05770781113646   -1.46031817281913
H         2.18762270083744    0.12288152545808   -0.09292051267661
H         3.87189585010322    0.63616842523987    0.23773294014846
H         3.01594572372332   -2.55921642533359    1.96799892564656
H         1.43225160561634   -1.77106918926762    1.80989000086182
H         0.79471645546070   -2.99994825299225    4.48773915544256
H         2.42906575073001   -3.28923456030282    5.20208598865051
H         2.20125357925516   -3.81972467884914    3.63419754365280
H         3.70176630070945   -1.52193518826462    5.47646589274494
H         5.12989032215980   -2.07085836169442    3.43065191271490
H         5.50807180905680   -0.39181990241930    4.01070327663982
H         2.42238617665119    1.73697310792099    1.72897035852471
H         0.52085912587978   -0.07272385698776    3.26869534165432
H         0.31830815962829    0.31112069850437    1.65668716523141
