32
 energy: -49.316366570720 gnorm: 0.141330442091 xtb: 6.4.1 (79825abcba525fcdf90b791dcacef51065a7a4e7)
C         4.03228187804806   -1.06743566817686   -0.39716469685062
C         2.80519350384184   -0.43039460390892    0.24373693066392
C         2.96564049725063   -0.41315922135262    1.78811749958521
C         2.19284615355164   -1.64266880811435    2.35440339212041
N         2.24435780592953   -1.69368954679546    3.83321883960136
C         1.57448576345122   -2.87308044018730    4.36260522329377
C         3.55881768793625   -1.23166902918186    4.36857150055575
C         4.68066157565362   -1.29530493940093    3.29506146243491
O         4.37169217098209   -0.41667727912167    2.17553966838546
C         3.43931208461795    0.21935741314536    4.70361919984626
C         3.00693325465997    1.12955481420057    3.78479188991413
O         3.07448115299832    2.36422354607072    4.34139888481970
N         3.48852203677808    2.19262343111437    5.67405125934027
N         3.82413622400615    0.90880468083967    5.81251780312782
C         2.39011430147155    0.93570595657177    2.45033083410743
N         0.95518909793130    0.88452882676474    2.79045346548365
H         3.99387073108832   -0.96359427531921   -1.48722082038543
H         4.15610789696022   -2.11992131289797   -0.13121060417894
H         4.93492446711852   -0.52075848566464   -0.10877512764936
H         1.95480303026686   -0.99064088326837   -0.16066262704004
H         2.69432070744513    0.61292317490312   -0.07689726100839
H         2.66594334280992   -2.55920577513933    1.97729376462959
H         1.19181447232714   -1.58479767404468    1.91212472173346
H         2.19869113766967   -3.37269520729247    5.11303003097549
H         1.38543698342378   -3.58914806354576    3.55679741878719
H         0.60729458841394   -2.57883366412928    4.78286191049974
H         3.69688142844413   -1.81812100033082    5.28468568895560
H         4.94535634008034   -2.26888635056014    2.86757686120192
H         5.60695418085539   -0.89978400269916    3.72699265336747
H         2.48612734669607    1.78981716686680    1.77422320252048
H         0.69540664094041    0.15151940146553    3.46043889998585
H         0.40907356716068    0.83330624207530    1.93451953392407
