32
 energy: -49.310904374146 gnorm: 0.145939822707 xtb: 6.4.1 (79825abcba525fcdf90b791dcacef51065a7a4e7)
C         3.33639591376923   -1.42822310870263   -0.47948739560382
C         2.89993398081277   -0.20232130484447    0.31360013541738
C         3.04747906905692   -0.32271740900730    1.85466692531969
C         2.31876547727500   -1.61226797928333    2.34007442537202
N         2.32358676334094   -1.59500036126375    3.82055755011595
C         1.78244648430196   -2.85128923023891    4.31940307756593
C         3.66969323393144   -1.20617160958848    4.33502794450863
C         4.81011699347197   -1.32308650952997    3.28585132214072
O         4.46773732293431   -0.53047148305426    2.11311295340437
C         3.51245601792476    0.21900388233614    4.75475111975518
C         2.97128313339297    1.16677138143332    3.93711854357273
O         2.88513347354772    2.33078949235763    4.62735110649185
N         3.27601338253254    2.03964839223229    5.94617200261951
N         3.64938834073170    0.75978097739356    5.99648093148507
C         2.59417622623690    1.07717534251160    2.50582815210910
N         1.13904905050498    1.25818889735154    2.34105010547382
H         2.84113241604810   -1.46695349636334   -1.45606039705454
H         2.88951956166595   -2.35054218394461   -0.10077966824598
H         4.36942587703183   -1.75178377308085   -0.63742952046991
H         1.86198711132137   -0.19455360272424   -0.03737680542142
H         3.41174315556432    0.69039178853360   -0.06682823419362
H         2.82108261231541   -2.49431561227519    1.92085837667864
H         1.33818518701549   -1.64913136582631    1.85209153705094
H         0.75105273228090   -2.98432054417876    3.97167580400703
H         1.79829725253292   -2.99120636529940    5.40475576157858
H         2.35660556020436   -3.68404804703004    3.90046426533539
H         3.96749907583387   -1.76443332056068    5.23052125071299
H         4.92590295745658   -2.35763104762677    2.94383030488779
H         5.72892635099826   -0.91546261437191    3.72248787080474
H         3.02547514644444    1.88234299234748    1.90455260811760
H         0.57834537244821    0.64923121930574    2.94805270224620
H         0.87564231886240    0.93757104097914    1.41298227381389
