32
 energy: -49.317198917707 gnorm: 0.144354469989 xtb: 6.4.1 (79825abcba525fcdf90b791dcacef51065a7a4e7)
C         3.55739438288491   -1.44453678318211   -0.54794287526305
C         3.29926083986748   -0.20786174561395    0.30430357351821
C         3.14016694000117   -0.34057716782175    1.84320817797125
C         2.44259547776838   -1.65286400316059    2.31318897357335
N         2.39841724952273   -1.67374804683368    3.79297403790519
C         1.65911767545715   -2.76749221217047    4.40705971548442
C         3.65303163007348   -1.17877669988439    4.43236151009379
C         4.82601246401335   -1.16288298074651    3.41311158816192
O         4.52076393346750   -0.26571276242450    2.30735996904574
C         3.43543269563092    0.27725393947879    4.68660897988160
C         2.92782441003612    1.15492974384280    3.77464769108500
O         2.71279363239492    2.31622831564307    4.44092715917121
N         3.15673166308950    2.14677081759010    5.76419658914790
N         3.60243148963611    0.89535373234349    5.88791964626280
C         2.30488262068928    0.89111610883724    2.45511171792711
N         0.84560165957158    0.67246642409283    2.45306047569953
H         2.70343059513610   -2.13072504206441   -0.56723858056327
H         4.42730110321243   -1.97599061474734   -0.15473858131022
H         3.70661267744955   -1.06339559203409   -1.56246415227596
H         2.39610879852036    0.19451727817612   -0.16791074894349
H         4.16959086374038    0.45721619161301    0.24259426497446
H         2.96016067645726   -2.49889487719464    1.84156342881368
H         1.42811949737250   -1.71808615344273    1.90378883617552
H         1.76808360368356   -2.60106347560379    5.48539758575772
H         2.17022867628857   -3.66384052817007    4.04217104302071
H         0.60301768998655   -2.77610604667774    4.11855626603478
H         3.92594999783159   -1.69515698418712    5.36032685809696
H         5.02164614776449   -2.18739068673097    3.07728634696490
H         5.72519814606854   -0.71441521214571    3.85056001592742
H         2.38725486111059    1.77543302437666    1.81711140138853
H         0.57300172040458   -0.10314435489332    3.06770461214209
H         0.49026092088192    0.57792214117819    1.50528246723447
