32
 energy: -49.311464177353 gnorm: 0.155748109846 xtb: 6.4.1 (79825abcba525fcdf90b791dcacef51065a7a4e7)
C         3.62421749759943   -1.28758096490170   -0.48115439541730
C         2.90138748848125   -0.23039543714596    0.34479816030897
C         3.03886822202778   -0.30752061291451    1.88956428968032
C         2.35751362674699   -1.66145860922386    2.25314708032451
N         2.28090899881305   -1.72542160066829    3.73037155825646
C         1.63354102668582   -2.85199781382677    4.38739676073039
C         3.54388057125463   -1.21637593407228    4.34163707082897
C         4.70329487220661   -1.24870992222685    3.30736436626531
O         4.46459639112939   -0.33946394195030    2.19512676279613
C         3.29102388614534    0.20408254887092    4.72942242242867
C         2.92739322380194    1.17580924040701    3.84445103425236
O         3.08625725797393    2.36250418494467    4.48108142884805
N         3.67451822459399    2.09993083421952    5.73081862999035
N         3.90198279761918    0.78697239441891    5.79715455380166
C         2.34788986571443    1.01632310881621    2.48888129194629
N         0.89551455663735    0.83737142049021    2.67834126420041
H         3.39224300359410   -1.01245657515293   -1.51603371624553
H         3.23009215416924   -2.29368765250800   -0.31927468495420
H         4.68039391199676   -1.32570797920550   -0.19861972570504
H         1.84463744030947   -0.18545009895680    0.05872455645161
H         3.19828756071880    0.75656032847900   -0.03120677632630
H         2.88265720329283   -2.40308967834835    1.63647844286015
H         1.31245335281313   -1.63997188375266    1.92388842571939
H         0.86944464547514   -3.25465335050233    3.71181560629760
H         1.24264269947436   -2.43805893747505    5.32210078107005
H         2.33205436345799   -3.63830777327314    4.69145494681320
H         3.82296616339677   -1.84545278177666    5.19523315152155
H         4.79918540516568   -2.27168466078511    2.92658246255751
H         5.67080460429179   -0.96274460678780    3.73534580041018
H         2.62836768294608    1.83275822411676    1.81760497932657
H         0.90684644960364   -0.05517205168885    3.18520216210027
H         0.38087661247031    0.79926436864506    1.80245059991062
