32
 energy: -49.309510020703 gnorm: 0.154338777865 xtb: 6.4.1 (79825abcba525fcdf90b791dcacef51065a7a4e7)
C         4.07265625939335   -0.19609023246833   -0.48018130900320
C         2.88424160388215   -0.76629738544911    0.28457779845576
C         2.98990677825153   -0.59628057408647    1.82440920932238
C         2.12501494122515   -1.69690962542992    2.51009311418013
N         2.17320313826456   -1.62132584724422    3.98796884609917
C         1.64002930763083   -2.87115434075938    4.51103268795992
C         3.51312625221202   -1.21220756056469    4.50284599527624
C         4.56460699642285   -1.59571727460978    3.42473860095210
O         4.37881263895211   -0.86670228629601    2.17782429066179
C         3.45655279601378    0.26196611027643    4.73870117999804
C         3.18127651291047    1.10373024458274    3.70172940425021
O         2.94854293042009    2.35158863668499    4.17866278254342
N         3.19799681027168    2.26554056614694    5.55967954383140
N         3.59104504575207    1.02583400083907    5.85740619647490
C         2.62296081403070    0.88097781673038    2.34618736636965
N         1.16179949065460    1.04876864072069    2.46521111107246
H         3.81755831067777   -0.42666873558424   -1.52048866480380
H         4.96807285640101   -0.69702643327407   -0.10457175812902
H         4.20847082503786    0.88673027579930   -0.40374652340325
H         2.90630096664782   -1.81968998103318   -0.01618170166105
H         1.91338421678044   -0.31457367668982    0.04584642001294
H         2.54208786650389   -2.66689448067268    2.20801334913991
H         1.07703785155131   -1.69713223355043    2.18951881592846
H         0.78540646431189   -3.24813947247780    3.93667507901597
H         1.51525519195283   -2.90415760172156    5.59784486329024
H         2.34416373935886   -3.68058539022959    4.29269419657984
H         3.58599459094582   -1.90840314882833    5.34679777583362
H         4.47151315546711   -2.67446348071859    3.25649080008127
H         5.57793358743200   -1.29002109774946    3.70888366003962
H         3.08668818017376    1.56840285471769    1.63327100557002
H         0.72444175998012    0.25679561730324    2.95015148900083
H         0.71982225997307    1.15065298989423    1.55539545731040
