32
 energy: -49.314651903825 gnorm: 0.138304312929 xtb: 6.4.1 (79825abcba525fcdf90b791dcacef51065a7a4e7)
C         3.85727052071644   -1.44223020184120   -0.29198463582063
C         2.98016341141574   -0.33239296014994    0.27481912825768
C         3.06572989405438   -0.33553503486809    1.82524492020531
C         2.39444468385901   -1.67133721568808    2.26637226514800
N         2.29927191938022   -1.66525078052957    3.74388937249935
C         1.95175251796162   -2.99623604880401    4.22101604981587
C         3.52297035832605   -1.09900231198137    4.38404171124936
C         4.73581592031169   -1.19717377140028    3.41741094159187
O         4.46160309738208   -0.37675610164214    2.24587354125628
C         3.29913959248615    0.34326960847126    4.70305232584778
C         2.73165139308525    1.24822337177063    3.85530814023840
O         2.66862178614528    2.45622699795025    4.46811759826253
N         3.35304870217242    2.29539524600718    5.68571020158188
N         3.70587917408450    1.01522687703117    5.81486148306217
C         2.30918132732582    0.92979504890320    2.47004580830469
N         0.83536432855868    0.86211130847408    2.44564943886938
H         3.36121523695398   -2.40682120737141   -0.44682051642466
H         4.80934673533114   -1.51712856878917    0.23879932342448
H         4.08190198192441   -1.13790496878626   -1.31849084101898
H         1.93790917737473   -0.43972686110217   -0.04574974231540
H         3.35972529150209    0.64813475133389   -0.03840480966282
H         3.02409302544748   -2.44711117790586    1.81053198565810
H         1.45968865894335   -1.85527577304340    1.72468813360977
H         2.68769089352781   -3.79571756649134    4.07401718256173
H         0.96545773396111   -3.27797473237421    3.83935597079419
H         1.78184207975367   -3.02891476064318    5.30208874121104
H         3.68055629890921   -1.62567519441847    5.33274349283525
H         4.87004107591564   -2.20781176917859    3.01583702149865
H         5.59411268199823   -0.79370638996591    3.96655581816152
H         2.59955970812714    1.79151481546669    1.86262055283555
H         0.56897852877725    0.54546053968699    3.38503281367359
H         0.61437166075173    0.03880754954619    1.89173429909520
