32
 energy: -49.318821421160 gnorm: 0.142788905752 xtb: 6.4.1 (79825abcba525fcdf90b791dcacef51065a7a4e7)
C         3.77248777119555   -1.05552456576906   -0.52772311140081
C         2.71273769350718   -0.37660731023255    0.33153425363253
C         2.91983783443506   -0.40189791768786    1.87024200836168
C         2.08858980307421   -1.58586255559485    2.45062039958848
N         2.30883151554700   -1.66130450898706    3.91279473942914
C         1.86409371374833   -2.97900502691253    4.34385740437538
C         3.65312388252732   -1.25533183264681    4.41869437047087
C         4.64813050595067   -1.47105030147732    3.24462691264895
O         4.33798356083266   -0.51387241043387    2.19182253123548
C         3.51039353151552    0.19425526479543    4.75087136525090
C         2.98840901691416    1.09621792201452    3.87129766609552
O         3.02060391298458    2.32658808509491    4.44044939330061
N         3.52634385123706    2.13811427710942    5.73873423981886
N         3.81039825247405    0.84556883904361    5.90796731857792
C         2.46309212047510    1.01231105864922    2.48716216592674
N         1.01012248494169    1.26425553264844    2.43504653438949
H         3.33796895784266   -1.31213140152193   -1.50025955598286
H         4.11117412909316   -1.98110860686481   -0.05615527115237
H         4.67949383011796   -0.45865140411164   -0.66140394231291
H         1.70825852720126   -0.76866455477376    0.13687666149955
H         2.73314859221332    0.68231252064798    0.04538178017252
H         2.37391095793262   -2.53937442632654    1.98642261744659
H         1.02061069228702   -1.41678173529464    2.27213730571569
H         1.13385635371630   -3.35357398767554    3.61664618838912
H         1.45457889453521   -2.88251741085596    5.35420697546415
H         2.75206953709478   -3.61325924987938    4.43260501569420
H         3.95268575658060   -1.93323289845520    5.22675720142747
H         4.41880507003111   -2.48434794234047    2.89633837174097
H         5.73193759638573   -1.32300729139724    3.31144611264115
H         2.87505337939963    1.85207033547157    1.92064802385418
H         0.52419665777229    0.59400393781352    3.04193129648899
H         0.73937017884958    1.02858273735399    1.48392070519654
