32
 energy: -49.309432218410 gnorm: 0.154169222671 xtb: 6.4.1 (79825abcba525fcdf90b791dcacef51065a7a4e7)
C         3.17103104210904   -1.65852895141445   -0.37521527696403
C         2.96125141547079   -0.31317827913770    0.30914294067154
C         2.99071835854709   -0.31505375744018    1.86165053464004
C         2.05913412537592   -1.40994776901421    2.46409766891015
N         2.33482746997481   -1.83134880120026    3.85642164081864
C         2.40652218004640   -3.26689658236194    4.08880886738931
C         3.56166097080094   -1.17740578002195    4.39966035779717
C         4.68932623496989   -1.29315357506672    3.33665492903166
O         4.39424246891411   -0.65865896378683    2.05950189857307
C         3.29937694603640    0.25570248277287    4.73045346309828
C         2.98598309733053    1.24601617213474    3.84687127714316
O         2.99797340008909    2.42402928312095    4.51837875079161
N         3.20451588541943    2.11211025198060    5.87369625044296
N         3.28877224892081    0.78522342681294    5.98447833497121
C         2.70969498859031    1.17806250635034    2.39157869725017
N         1.26898076564765    1.49664079256441    2.37880178023610
H         3.41054511362826   -1.45244634453775   -1.42433098745027
H         2.17540657103082   -2.09200388348143   -0.25429425605053
H         4.00331741183365   -2.21855902622706    0.06119490049757
H         1.99218279980090    0.08051956858735   -0.01718033876870
H         3.72920563412063    0.41778934258806    0.02710800315532
H         2.09092971050178   -2.27368489407839    1.78658763105946
H         1.06449569715361   -0.96597719486357    2.34323225779759
H         1.47581501006786   -3.68898501286322    3.69130392209763
H         2.34828681228947   -3.35408483720087    5.17822401092834
H         3.32178826582788   -3.71308502833136    3.68649122921399
H         3.90748878453998   -1.78127947918782    5.24700467949063
H         4.79561869657038   -2.38170454053687    3.27012763177712
H         5.56939577436439   -0.83903776494837    3.80599040990512
H         3.26538371756835    1.97735797896377    1.89339922573937
H         0.70356779807610    1.18073595234119    3.17515756367325
H         0.87323360747912    1.26369003538412    1.47182495999326
