32
 energy: -49.317619005569 gnorm: 0.150204780307 xtb: 6.4.1 (79825abcba525fcdf90b791dcacef51065a7a4e7)
C         3.80150280016880   -1.37248268789176   -0.51174970198549
C         3.15525055902306   -0.24173385781690    0.27950702075155
C         3.09810222326866   -0.36100171885266    1.82665305822729
C         2.47408077493616   -1.70701584064464    2.30459428396489
N         2.37997456071366   -1.71170955817129    3.78218477973439
C         1.82185078422651   -2.88237843620733    4.44398051717687
C         3.62348622738138   -1.15580404675681    4.39252730662649
C         4.77722869510333   -1.12550181793280    3.35187024781813
O         4.48312318989281   -0.21021415232499    2.25801096002839
C         3.29557631198317    0.25610692607017    4.75446479541736
C         2.82894399200245    1.12486308850033    3.81256705241759
O         2.81969684033989    2.37699331245049    4.33301427428785
N         3.23380295742420    2.28319849228279    5.67337148570245
N         3.52875687882229    0.99732363783016    5.87218920397148
C         2.30433271791050    0.89477123890607    2.44484265799764
N         0.85219231137857    0.67246130784756    2.58333217533760
H         3.20120235366625   -2.28745570767539   -0.45748601642681
H         4.80908865879421   -1.56927487410498   -0.13780576926260
H         3.88279805255797   -1.12339688838936   -1.57388692090238
H         2.10072300426484   -0.23673201335516   -0.01802528426871
H         3.52267276596389    0.77467334729866    0.09101734142406
H         2.91781873235500   -2.64816104379879    1.95328965184926
H         1.43976524149744   -1.79614265040141    1.95349358463041
H         2.54056242561461   -3.68479440006279    4.64883864240910
H         1.13264587540618   -3.34025741551627    3.72762729852231
H         1.18487414960604   -2.61105045946559    5.29209460775942
H         3.75465135173737   -1.69969308211624    5.33551889621826
H         4.83922485912759   -2.14248762962461    2.94867860392280
H         5.68947956382332   -0.72433579512205    3.80781270353339
H         2.41783602328418    1.78901232864497    1.82573374013449
H         0.50471430710343    0.03438924153867    3.30844822937044
H         0.46674455122197    0.39153250957116    1.68555834526986
