32
 energy: -49.315539431087 gnorm: 0.143560333741 xtb: 6.4.1 (79825abcba525fcdf90b791dcacef51065a7a4e7)
C         3.61703392219990   -1.51441735346043   -0.26813698817903
C         2.96715639748308   -0.29339941487061    0.37146952568354
C         3.03221675282513   -0.33501517231321    1.92233603532196
C         2.19372063694189   -1.53919850226896    2.44812250449633
N         2.28670171659703   -1.75941655881142    3.90928992574046
C         2.25658096529625   -3.20692792724523    4.06338397048668
C         3.50481999328655   -1.15254454320991    4.52228621329255
C         4.68473204891229   -1.26435455159200    3.51714288407819
O         4.42803711779530   -0.47261938483554    2.32213625426799
C         3.24092695066330    0.29225314748306    4.79603132525536
C         2.75152278652403    1.13744394302840    3.84430107371617
O         2.78106789473818    2.37709282408409    4.39309856979628
N         3.38207129678501    2.29440526089426    5.66148198318717
N         3.65614136405942    1.00673382283484    5.87778805670373
C         2.42341450090101    1.07595966408322    2.39951944692022
N         0.98794849337758    1.24810817872564    2.10436684698767
H         2.85780523391765   -2.29193140543033   -0.40786709585820
H         4.36336600962863   -1.86649671979146    0.44797685210770
H         4.11563305809905   -1.36242073387799   -1.22994988987652
H         1.92559620311332   -0.19114890923541    0.04700680800018
H         3.50795881166055    0.54846518192500   -0.07842801853261
H         2.47476587241199   -2.46362999031827    1.92609507881024
H         1.12674758221444   -1.43717903894725    2.21968334215953
H         2.13819467731362   -3.53477935351974    5.10303910103396
H         3.17559172532494   -3.70057189280027    3.73239550718074
H         1.41823351338483   -3.51439648651955    3.42990764267575
H         3.66189528121575   -1.82245765958435    5.37598199688902
H         4.71813316211152   -2.33962114650533    3.30892835550083
H         5.63723856614449   -0.91112641175063    3.92821534719622
H         2.95252704652538    1.90308075389972    1.91810837571773
H         0.38390073279511    0.73027494651436    2.75293856191088
H         0.73410533679594    1.19876808795878    1.12119950493702
