32
 energy: -49.312228273874 gnorm: 0.150675988798 xtb: 6.4.1 (79825abcba525fcdf90b791dcacef51065a7a4e7)
C         3.86060737979072   -1.32635692364916   -0.27976388110898
C         2.79399258444610   -0.36215724984340    0.22518558795301
C         3.01438329828406   -0.36397897880032    1.76225300544085
C         2.31158463569167   -1.63198259244296    2.33481347861228
N         2.36090239124453   -1.69216091495083    3.81335939349056
C         2.03241656347067   -2.98417780127362    4.39879155029473
C         3.64877303393398   -1.15378472771298    4.34195233710298
C         4.74282594952890   -1.22553070350568    3.24063142073983
O         4.43795276494380   -0.40518795085923    2.07664353087212
C         3.36785113337794    0.25468666417311    4.75342224541143
C         2.93718351187871    1.15628601934282    3.82536062991658
O         2.71237694157317    2.34718127953857    4.43364626631414
N         3.12316112379531    2.17899221477373    5.76774056441704
N         3.52958074539028    0.91872694938542    5.93069760794259
C         2.40253824509330    0.95190781904638    2.45743765600089
N         0.93357211749477    1.09084942586986    2.46954361732685
H         3.55003732974391   -2.33430108012911    0.01701150069425
H         4.83097653379058   -1.10046156757302    0.16872858283403
H         3.97663016908783   -1.10295080238099   -1.34438425862533
H         1.75333138019338   -0.66671567362765    0.06755538155742
H         3.11156888243858    0.62725759743435   -0.12668740830963
H         2.86576546387812   -2.49497453820244    1.94212894578569
H         1.25367705416153   -1.70928909922728    2.05935174696777
H         1.80544454357353   -2.77441483578600    5.45086942815032
H         2.81602022755683   -3.74472038309826    4.32558786487672
H         1.16873417893920   -3.32494104800709    3.81862884095226
H         4.05632315168813   -1.73904453730198    5.17479479943183
H         4.64559000368393   -2.26843914421954    2.91883283669708
H         5.74204813739317   -0.88656545399593    3.53673432126784
H         2.66943090928391    1.84143925357476    1.88007457623901
H         0.53753602731987    0.40695836277357    3.12461510349496
H         0.60277160181297    0.74774484945509    1.57157976141272
