32
 energy: -49.314508483212 gnorm: 0.144384635668 xtb: 6.4.1 (79825abcba525fcdf90b791dcacef51065a7a4e7)
C         3.53593416355034    0.17242882597544   -0.53195538760353
C         2.99217427123352   -0.92798029259305    0.37123176604408
C         3.09514394476857   -0.69724121342275    1.90332456592579
C         2.16670600417431   -1.74448867658704    2.58951721205563
N         2.18606267181714   -1.78944507114858    4.06929960215302
C         1.39790572700086   -2.88064609607141    4.62430438797412
C         3.54129196786808   -1.33085025098603    4.49464009328674
C         4.68686553964964   -1.62575518685805    3.48682102109705
O         4.49999922030913   -0.90806011998402    2.23351640314280
C         3.43643349987337    0.14027467792047    4.73299359430685
C         2.98650261217941    0.97789240535876    3.75543894564331
O         2.94482323995121    2.24839470219785    4.22752757836079
N         3.39334351518570    2.17437497505458    5.55801224403987
N         3.75159287008375    0.91374223784156    5.80793812560412
C         2.70234207355554    0.80928359550870    2.30987568857535
N         1.39110910728107    1.37734517481591    1.94206195562007
H         3.80866429058761   -0.24566157086728   -1.50730122385665
H         4.43743364976127    0.54844229561528   -0.04236061429195
H         2.79910719355954    0.96378442790117   -0.69817949542744
H         3.57691208181346   -1.81686798395022    0.10943180448460
H         1.92949050330789   -1.13766385529666    0.19702768756601
H         2.42650384991823   -2.71997631488294    2.15708043022906
H         1.14119032220235   -1.39618792057634    2.42210129801088
H         0.35814641631455   -2.71606907013628    4.31738480044471
H         1.34722988308859   -2.82681746903161    5.71625353232481
H         1.84794547377129   -3.83117770787959    4.31998630538280
H         3.86131138960171   -1.87373729051925    5.39192150951450
H         4.75727794152926   -2.71434588779518    3.38347915687431
H         5.64844915293107   -1.24662100420844    3.85100994937586
H         3.45914684524988    1.45833124971037    1.86062110697186
H         0.61329873988507    0.91006343619399    2.42198802048088
H         1.19653259918376    1.16581113892445    0.96693009325930
