32
 energy: -49.314971088072 gnorm: 0.156074260751 xtb: 6.4.1 (79825abcba525fcdf90b791dcacef51065a7a4e7)
C         3.60970580216131   -1.52810664930063   -0.43447394209372
C         3.08127819217537   -0.29678537940330    0.29142844849556
C         3.05776119181028   -0.40005878925653    1.84060022482715
C         2.30433080073502   -1.65899612460937    2.36691197675985
N         2.33312806165111   -1.62352454335865    3.84679852314335
C         2.06906917207319   -2.98311230411295    4.29594818704972
C         3.58256612139391   -1.12732563212632    4.49530558125185
C         4.76939708104998   -1.04697654119133    3.49531391318937
O         4.47206964156084   -0.47837278858774    2.18800221839380
C         3.21974594286228    0.29472766394197    4.77484488957325
C         2.85232773620923    1.20226191003873    3.82561371442552
O         2.73647456239035    2.39431222635419    4.46151859312266
N         3.11390445832175    2.26441778994659    5.80967025689741
N         3.33674070064473    0.95740127346866    5.95817036202299
C         2.44421427145581    0.97041192602852    2.41901559911616
N         0.98735064659730    0.90696148952235    2.19354890110164
H         2.82029516169818   -2.15658667357386   -0.86146867603748
H         4.24917148632823   -2.13357063477663    0.21227755241044
H         4.23829680931023   -1.23032626748958   -1.27886029794394
H         2.09225503805342   -0.09629909406973   -0.13544074114897
H         3.71425879264297    0.54683674662916   -0.01064491584499
H         2.93247270283217   -2.45980295525588    1.95433615742361
H         1.29175525845328   -1.77726311119180    1.96475826694216
H         1.14525738048969   -3.33067664798498    3.81829196836239
H         1.95778888064275   -2.90797617545641    5.38212946314303
H         2.80807948901656   -3.72534791243383    3.97719173642423
H         3.91433311689681   -1.72437847663066    5.35304171689815
H         5.24385793427645   -2.01869585002086    3.31835162610007
H         5.57073236427319   -0.45702846750620    3.95448968349212
H         2.85676707235257    1.82993880109068    1.88342272027810
H         0.50422654673848    0.33730928974203    2.89764953103199
H         0.79571398669842    0.51999308713060    1.27321219002206
