32
 energy: -49.310223576449 gnorm: 0.147474760335 xtb: 6.4.1 (79825abcba525fcdf90b791dcacef51065a7a4e7)
C         3.73182808100920   -1.49985326563665   -0.35830500774474
C         2.85771238359685   -0.43223967327817    0.28856828392738
C         2.99004105760910   -0.36268997212381    1.83414377542476
C         2.14282492166109   -1.51353358535140    2.45653305732431
N         2.28689244334764   -1.84668569919225    3.89194446439022
C         2.28322666007320   -3.28280861569546    4.13169206745350
C         3.46850006469537   -1.18682477055202    4.52143409638647
C         4.64072930933952   -1.19969699176563    3.50127727079578
O         4.36401034870665   -0.39052164078353    2.32253235651259
C         3.23633546223215    0.27412737372616    4.73056254981400
C         2.95990686527486    1.19561157072469    3.76406967124580
O         2.90230816101275    2.41242891758504    4.35973642630938
N         3.19779338849763    2.21067454579934    5.71945053575157
N         3.32106396240228    0.90005476870832    5.93643121606189
C         2.56319677212784    1.10460273620035    2.33817773966429
N         1.12868369506937    1.39366902718904    2.14863689013047
H         3.62051560404525   -2.46532647413814    0.14761180329342
H         4.77647018859797   -1.25474658094633   -0.15230482249975
H         3.61612714184814   -1.52806682212139   -1.44578163531603
H         1.76860438429186   -0.51568423691521    0.20219912694633
H         3.14279181572883    0.50976376709485   -0.19616905137557
H         2.26049761618895   -2.46245830960182    1.91637786331591
H         1.07565938230631   -1.28512200234980    2.35648417869363
H         2.28668517613487   -3.58830874374757    5.18480287264621
H         3.12712073537294   -3.69776590746623    3.57180659880367
H         1.38432709270421   -3.77111500563948    3.74157406530374
H         3.74217567130831   -1.68610843674075    5.45848809859962
H         4.90224256716775   -2.23298628310476    3.24712923289539
H         5.49324332613954   -0.75765992369921    4.02933260679261
H         3.22807585828839    1.85965301660081    1.90959766573478
H         0.63337706894817    1.25729073065684    3.03731148230144
H         0.62299820989712    0.86597735233363    1.44201641185414
