32
 energy: -49.315088567800 gnorm: 0.135010159297 xtb: 6.4.1 (79825abcba525fcdf90b791dcacef51065a7a4e7)
C         3.43937226183892   -1.33005537733395   -0.58050116587714
C         3.13923973808395   -0.11628496678957    0.29070715422409
C         3.08069633603239   -0.35645656872292    1.82369178870878
C         2.29764070438721   -1.61829197605344    2.29716818516521
N         2.22625965867619   -1.69306497696555    3.77414666687014
C         1.72948207006063   -2.99229798225161    4.20443378711958
C         3.46896317375437   -1.21218118363821    4.44668585603005
C         4.66297237640270   -1.31441739212569    3.45729370176165
O         4.44521633084388   -0.41142870340249    2.33570044232587
C         3.41672536970668    0.26064292724201    4.69179121489295
C         2.97136017625146    1.21096425222186    3.82104807984016
O         3.14723085595246    2.43369469066673    4.38031609006113
N         3.67407546651582    2.20261503674533    5.66323298249758
N         3.81671911961970    0.88691979255068    5.83234614934864
C         2.34841461837736    0.90034275700522    2.51174199793230
N         0.88771966705190    0.84968164069571    2.71451411271707
H         3.30468117625127   -0.98205836274480   -1.61066483852626
H         2.79666584477263   -2.21360523496068   -0.57284607944502
H         4.44247274630947   -1.65255270528271   -0.28626823281273
H         2.21740555617928    0.38134013601193   -0.03049348281043
H         3.96293249851718    0.57099815001534    0.06096121229742
H         2.51595571000899   -2.62506141276047    1.91660744306472
H         1.28807518751579   -1.42452717969807    1.91735692622878
H         0.67613481389835   -3.09917489127475    3.91908918369171
H         1.73555418776707   -3.03988152657092    5.29783098728994
H         2.38359879714199   -3.82692725918057    3.93207208953678
H         3.69342843705074   -1.74633955770763    5.37756871399364
H         4.75835128446603   -2.30594365038801    3.00073514551309
H         5.56969505294987   -1.04720269127113    4.01179315846196
H         2.54156038263984    1.82601002140398    1.96248720082142
H         0.62247409434132    0.09482786281420    3.35756215380072
H         0.47930665500782    0.77044446633465    1.78693171707472
