32
 energy: -49.309261030735 gnorm: 0.154067867822 xtb: 6.4.1 (79825abcba525fcdf90b791dcacef51065a7a4e7)
C         3.86752898113536    0.19658247116890   -0.53719361217742
C         3.00695693620117   -0.77278318014309    0.26409788501431
C         3.07002299310371   -0.75482167003232    1.81550101454304
C         2.28051369428812   -1.95358588200451    2.42313909267475
N         2.14782055760546   -1.69845233834670    3.87553404421480
C         1.25524251045342   -2.59635563038054    4.59457192795728
C         3.46059078888454   -1.32818883276991    4.48167714302862
C         4.63307785871335   -1.42399161085366    3.46624475814234
O         4.48595052786592   -0.79033893524697    2.16331899918586
C         3.41013656813804    0.13882753369492    4.75976635232803
C         3.03647359566820    0.94629880973758    3.72631559125506
O         3.14679673305986    2.21480135826729    4.19269634906779
N         3.57281918182021    2.19644137374019    5.53247490583443
N         3.67633469763876    0.90542365821909    5.85272205764174
C         2.55736493599335    0.67381176664542    2.34971290215241
N         1.10279287426819    0.90099409580199    2.44931769860617
H         4.51486506921499   -0.22285254800396   -1.31533951834908
H         4.48261168991955    0.76404245857705    0.16526842705419
H         3.24825578465238    0.95021079173457   -1.03250481458484
H         3.28965576197565   -1.78108393843587   -0.05837662002697
H         1.93316212883707   -0.67090683992670    0.06360606699554
H         2.91689279177774   -2.82485318088732    2.21823042164849
H         1.22596163731054   -2.04551832528753    2.13942745390023
H         0.24544123576343   -2.36318929812132    4.23635480782989
H         1.15952824078136   -2.36439814097573    5.65986672225333
H         1.63452812730613   -3.60775109532695    4.41602991127362
H         3.64310457677255   -1.97873910515421    5.34523129000549
H         4.89749696060030   -2.47891990345047    3.33254358879886
H         5.47993734970335   -0.88751921376482    3.90901526923611
H         2.97666550996842    1.38936280995889    1.63695788182975
H         0.79014922827611    0.13287869907004    3.05423332468444
H         0.68735314576028    0.77605105276042    1.52992230793787
