32
 energy: -49.313375128769 gnorm: 0.140083627261 xtb: 6.4.1 (79825abcba525fcdf90b791dcacef51065a7a4e7)
C         3.18835938090544   -1.44126777233141   -0.56098205347491
C         3.27769872935126   -0.18469154432037    0.29654738946337
C         3.18825474687361   -0.36681848894066    1.83602170634692
C         2.52234107902226   -1.71193529971969    2.25650281060075
N         2.35646648949643   -1.75950216567376    3.72700432226767
C         2.06347547185638   -3.02950482727652    4.37599652568171
C         3.53084118777694   -1.13482289999294    4.40412328179711
C         4.78964666000962   -1.07101305790838    3.49508855848921
O         4.57213545630090   -0.28439602351329    2.28897901884417
C         3.31534970165363    0.29058860750349    4.79627341642814
C         2.76349885015912    1.14447601973573    3.88743278130387
O         2.73471288616967    2.40646982283714    4.38273464984016
N         3.17405335664630    2.26604137546397    5.71092838759430
N         3.50230954760508    0.99449458854855    5.94633673661137
C         2.37708993751148    0.86262870142822    2.48383756640297
N         0.90635556785397    0.74791266060378    2.45077006254377
H         2.27765353899211   -1.99642426923806   -0.31018943994575
H         4.08739601225106   -2.05323715013311   -0.45601963319748
H         3.23509976573056   -1.27794203964642   -1.64168930661243
H         2.44542237321405    0.46455718016773    0.00265792810086
H         4.24272153234015    0.30841826644727    0.12571194081310
H         3.04958005609998   -2.53204292326526    1.75101772867959
H         1.57997253780014   -1.79522865864283    1.70330514320294
H         2.04073323019498   -2.79733910477564    5.44742852403349
H         2.76492520298838   -3.84960942337059    4.19374608008926
H         1.05428258426325   -3.27022227262957    4.02636751308578
H         3.81292365301169   -1.62933029553982    5.34121700082103
H         5.19512667300195   -2.06600258853562    3.28003284445780
H         5.57448997637266   -0.49504430289979    3.99837805613541
H         2.59719594455841    1.80912786552247    1.98230125376545
H         0.64257729548605   -0.16449149844076    2.84014121917728
H         0.47491573662492    0.83932855608174    1.53480520502607
