32
 energy: -49.314037223202 gnorm: 0.137102682181 xtb: 6.4.1 (79825abcba525fcdf90b791dcacef51065a7a4e7)
C         3.99469622239554   -1.18008516618904   -0.42198160641124
C         2.92491113913146   -0.34804849529645    0.27486624885344
C         2.90420976354993   -0.41622646116031    1.82601899229284
C         2.15115200502346   -1.69584695347686    2.30042390187848
N         2.19938144731743   -1.73048843723144    3.77982431359293
C         1.73030912078443   -2.98521995365930    4.35040414886395
C         3.48792879689408   -1.19184248743719    4.30648973995971
C         4.63722871118158   -1.26015008695732    3.26272213460140
O         4.32382035407067   -0.36623304431988    2.15661851065164
C         3.33793064674364    0.24407764907266    4.69074251390119
C         2.96990494033555    1.19397427530844    3.78415117235084
O         3.21781528312018    2.39827307237908    4.35597788933540
N         3.79471767989511    2.17345708832487    5.61830914447009
N         3.74817534209801    0.85774678953009    5.83450504915504
C         2.27828700323871    0.90120717361563    2.50556549143790
N         0.86259187399225    0.97893877241282    2.91431714333439
H         3.93551846216804   -0.89938948743105   -1.47942604060641
H         3.74281585655605   -2.24311270838148   -0.40411491488246
H         5.00452413182978   -1.00003561902674   -0.04169503191834
H         1.99356183059112   -0.60181121988898   -0.24356580216012
H         3.07439274779797    0.71188891517576    0.03445206234186
H         2.59600686926687   -2.61636604423445    1.89939849640898
H         1.13275761245530   -1.52280573014487    1.93442729864440
H         0.66242152002701   -2.87682970172914    4.57457435647621
H         2.26370413039457   -3.12163657428119    5.29628932731379
H         1.90093312577694   -3.89766988436707    3.76990592577195
H         3.76741742035852   -1.76020298191551    5.20153452984426
H         4.66099447070694   -2.26079743219783    2.81684406944816
H         5.57706961442643   -0.95382795631481    3.73588720182887
H         2.54930696507301    1.76478231836259    1.89186185967146
H         0.49637440212888    0.17181787229201    3.43211134530214
H         0.24870488285705    1.14076362418589    2.12031192091694
