32
 energy: -49.310810647736 gnorm: 0.147872697932 xtb: 6.4.1 (79825abcba525fcdf90b791dcacef51065a7a4e7)
C         3.72331844684187   -1.39799300159222   -0.44852969382977
C         2.95237085385071   -0.34662944791260    0.34051819958125
C         3.10831546165903   -0.42681025594016    1.88337398115963
C         2.40472626166373   -1.69005780932860    2.46539845296115
N         2.42458104328825   -1.74453690022543    3.94485427027660
C         2.06403512774775   -3.10215567511284    4.32802431999707
C         3.65314342884004   -1.09249349084639    4.48646674199249
C         4.79741507637096   -1.16456710708372    3.43744108531271
O         4.51693044328289   -0.36116291501495    2.25564254753970
C         3.34467814621855    0.34320841590713    4.76146761857106
C         2.82414776463062    1.18215345000494    3.82079034579518
O         2.53978059451286    2.37090523920017    4.40797467558033
N         2.87231319125230    2.20865252222247    5.76441668823526
N         3.40375599754994    0.99946424764389    5.95265247096531
C         2.49016292735137    0.96909084657788    2.39184396627911
N         1.04394994589338    1.10376124639169    2.13175798418241
H         3.26092413163960   -2.36003152060877   -0.20123596198742
H         4.80452686515604   -1.47751631421422   -0.31268090780711
H         3.52777348353615   -1.13071295874262   -1.49117617093391
H         1.89784400624419   -0.59683474499072    0.17943033752914
H         3.04944297659812    0.65588996642732   -0.09438739231935
H         2.90890778038377   -2.54663507789196    1.99833420367503
H         1.35861109507918   -1.82933136722654    2.16998374445551
H         1.43577694476260   -3.46771280521516    3.50702231000638
H         1.53341676513780   -3.08304311088137    5.28504958903553
H         2.93222264431792   -3.73377416572122    4.54241680112422
H         3.90134299038347   -1.67338173037325    5.38269135023933
H         4.90537949183364   -2.13809351197600    2.94626169370676
H         5.75746731335896   -0.72424487622311    3.72973441216977
H         3.06560949956437    1.75775271992844    1.89917805348475
H         0.45840390833405    0.50775690687307    2.72806737412362
H         0.92104979538124    0.92072996316586    1.13934480324209
