32
 energy: -49.316381580531 gnorm: 0.146597470580 xtb: 6.4.1 (79825abcba525fcdf90b791dcacef51065a7a4e7)
C         3.41160222037692   -1.63164394959681   -0.46315474088051
C         3.00845028794433   -0.36399852911687    0.28039464076266
C         3.12894884334674   -0.32549089009201    1.82802149366424
C         2.42125256355373   -1.57254080122289    2.43926375945404
N         2.38400966439263   -1.67152006496689    3.91607375551098
C         2.03651723513612   -3.00139203625482    4.39631425538206
C         3.70152878616896   -1.16952431536410    4.40598584400472
C         4.85485793314671   -1.20065828790008    3.36489527365681
O         4.53379758386615   -0.36254948816338    2.21804236826416
C         3.32821861990157    0.23600149364950    4.74826202989658
C         2.84858198162692    1.11786642134836    3.82526836614644
O         2.52986987858191    2.27509095463930    4.45616844742089
N         2.87370929213354    2.09041840084083    5.80691243119777
N         3.39886651517078    0.87228540951945    5.94960915148061
C         2.50406684363879    1.04887454187710    2.38465088557918
N         1.06628405887845    1.37005368820423    2.30135966351062
H         2.59007329262479   -2.34833089701654   -0.57238312335157
H         4.35891446878855   -2.00816348503602   -0.06993338408997
H         3.67796182874868   -1.39961672441084   -1.49853102592348
H         2.05921733525902    0.05216871133546   -0.07504941427749
H         3.86664441399581    0.27288738962500    0.03242242157319
H         2.93156256922542   -2.45494882574880    2.03059224661187
H         1.40534102521018   -1.55974549895896    2.02843052801513
H         2.05980511685981   -2.89141468504402    5.48706964431057
H         2.73293869149584   -3.74582932751995    3.99803197231937
H         1.03351255624432   -3.25398728180946    4.03738128684578
H         3.99214851987891   -1.74768953432408    5.29115128698299
H         5.01929442520762   -2.23332153538295    3.03742859973733
H         5.82412482796279   -0.81640044439875    3.70236667001814
H         3.12640266266875    1.84461876320858    1.96592034895064
H         0.60020683462791    0.59890619578540    2.79306464830570
H         0.84400216493316    1.24080158887470    1.31780820380654
