32
 energy: -49.314268141420 gnorm: 0.142520883334 xtb: 6.4.1 (79825abcba525fcdf90b791dcacef51065a7a4e7)
C         2.96095505222675   -2.04481858607314    0.01941379061533
C         2.68919295140569   -0.60054167065367    0.42256592556856
C         2.97801154337342   -0.40496078196560    1.93566987925315
C         1.89556101197831   -1.16134153676064    2.76378438234585
N         2.55105050575073   -1.89424465462287    3.87073435549369
C         3.07555341907588   -3.22271546717169    3.58788567051148
C         3.64770912554223   -1.07005917273874    4.45889111462775
C         4.82001538333574   -0.95414353151305    3.44534849825303
O         4.31186671451143   -0.97668086469411    2.08077724583849
C         3.18635265055029    0.29700583670060    4.84657620149903
C         2.88166733242065    1.21441448131116    3.88471207113009
O         2.33813928981381    2.27987827049205    4.52357442497955
N         2.26176901171051    1.97898493439307    5.89487657273872
N         2.75758128779859    0.75091980863142    6.05620443995674
C         3.05148285186586    1.12961858676983    2.41406540169634
N         2.03851988379828    1.99312455401294    1.77721668540782
H         2.60560497319259   -2.73527228742602    0.79238261994286
H         4.00184888401890   -2.26425629998759   -0.22994060661690
H         2.44733993586240   -2.29672969572548   -0.91307129439302
H         1.66004000567399   -0.23473128471962    0.33535448346515
H         3.27435217402617    0.15705438586096   -0.11338924897644
H         1.27346104987931   -1.80246802206132    2.12501909252749
H         1.29688590093644   -0.38343666052731    3.25109951234969
H         3.55626828452896   -3.57655962152888    4.50771836865636
H         3.86199641376077   -3.20730533685083    2.82690705997111
H         2.27324670849712   -3.92645010162895    3.34351479339457
H         4.06733285570992   -1.67812366520305    5.26909245660900
H         5.37332451492741   -1.88923481895087    3.58719511156631
H         5.48616001182404   -0.10362191472404    3.62942365420345
H         4.06665043045241    1.45667024958614    2.17257421950088
H         1.07275757816233    1.77102110967200    2.04487962724482
H         2.03120357757612    1.97895374174372    0.76073526694106
