32
 energy: -49.319035507128 gnorm: 0.140415774902 xtb: 6.4.1 (79825abcba525fcdf90b791dcacef51065a7a4e7)
C         3.50679737030140   -1.62568801766629   -0.33425629261765
C         2.86122482493295   -0.40659687907981    0.31333537997984
C         2.99537669627191   -0.37450899739647    1.85998507502365
C         2.14921489793718   -1.49005366365421    2.54493393398259
N         2.40951029553967   -1.76776755676863    3.97576341361798
C         2.37233785204269   -3.19342025553729    4.26914709819118
C         3.68690123309154   -1.17999547143099    4.47642957458006
C         4.81474092432982   -1.19673023682459    3.40745594515793
O         4.40118162933518   -0.42265721452985    2.24532111179036
C         3.26871177677617    0.22567027927952    4.76145180539918
C         2.73950712004004    1.09863505491815    3.85727852682525
O         2.52224529431698    2.26468811429506    4.51446838574220
N         2.97749140310032    2.11772345109622    5.83658455818184
N         3.42577472996099    0.86645126332645    5.95217185258254
C         2.56075451342106    1.08299239481841    2.38533011886096
N         1.28091893880627    1.66317784796533    1.93508734309583
H         3.03134514009670   -2.51317563331412    0.09793777683718
H         4.58720586069687   -1.71104572220947   -0.19561268565536
H         3.27000353371124   -1.61576790213391   -1.40225367057150
H         1.80161309697353   -0.40728399204964    0.03440641202382
H         3.31622011230217    0.45681236990655   -0.18777818516418
H         2.29902133859801   -2.43719029691891    2.00961826892772
H         1.13404899039404   -1.14616600228141    2.31645334451072
H         2.45101461725096   -3.31202304504441    5.35640420070324
H         3.15475681804682   -3.77340659621033    3.76989274432523
H         1.46708405304951   -3.64015960411808    3.84536043501262
H         3.95740445708734   -1.73351383628155    5.38345666933230
H         4.92664136314970   -2.19194217741240    2.96282277513533
H         5.77552852419308   -0.81442128448693    3.77042482191027
H         3.34004663933164    1.78469974723813    2.07523886187153
H         0.47366613400598    1.19644203497970    2.36423861382706
H         1.26512801809937    1.51762328824812    0.92907872641498
