32
 energy: -49.313779990721 gnorm: 0.150136794969 xtb: 6.4.1 (79825abcba525fcdf90b791dcacef51065a7a4e7)
C         3.81452374184288   -1.42725508792205   -0.41544809427555
C         3.07079961584383   -0.28997630611121    0.27432975577361
C         3.03257590247977   -0.35304648317586    1.82536577400033
C         2.33382045433438   -1.66480233622013    2.29506997700408
N         2.22448844189506   -1.60585816331891    3.77044240486323
C         1.77891566361845   -2.89947977650161    4.26838759427665
C         3.50786020551625   -1.12091736679514    4.35837059626527
C         4.70767483575643   -1.31716247868797    3.39041411738069
O         4.41840032190321   -0.42847411989645    2.27357439646977
C         3.40255233087601    0.32930516757003    4.70156314604025
C         2.85564932102766    1.21739836683608    3.82301779315454
O         2.98561397512849    2.43639361532969    4.40262170341675
N         3.33382492005490    2.25275445402352    5.75238634759597
N         3.65319685801638    0.96364337204290    5.87964447559939
C         2.31929681860890    0.93766819215131    2.46916909645847
N         0.85260109706158    0.80372743802734    2.55959227644466
H         3.22982649942465   -2.35038095864826   -0.33514514373031
H         4.79322037780460   -1.40819112641471    0.06991770192228
H         3.96434816572533   -1.16160999200189   -1.46605432571833
H         2.06093740308759   -0.04752835274066   -0.07492109198520
H         3.70145732549440    0.57599225611528    0.03772808065386
H         3.02905009270268   -2.44071125979178    1.94765994897193
H         1.38109241229288   -1.82002109684631    1.77618624028780
H         1.51564671540183   -2.64472244143122    5.30191206123291
H         2.44249732794257   -3.74126279039850    4.04730110716580
H         0.88266868584209   -3.09139602221458    3.66958451108864
H         3.63675851909291   -1.74350767587033    5.25168982844304
H         4.95339571951828   -2.36187953866845    3.16938317800525
H         5.58414289376690   -0.86798208410003    3.87110120076914
H         2.51632799700750    1.78146040980720    1.80205636296821
H         0.55124332247537    0.27416820986936    3.38567988571404
H         0.58547996573786    0.25736820441607    1.74495940944605
