32
 energy: -49.313235742494 gnorm: 0.146382614112 xtb: 6.4.1 (79825abcba525fcdf90b791dcacef51065a7a4e7)
C         3.61575967013036   -1.49279575868127   -0.42781570375584
C         3.13395006567063   -0.21060725900971    0.24014705075357
C         3.09538139450883   -0.33327010488445    1.78760235128536
C         2.41619367479992   -1.64999087739288    2.27189055299434
N         2.33256660544391   -1.68180387020494    3.74977625110979
C         1.92838536025077   -3.00075395893058    4.21555469880910
C         3.54869355259089   -1.10584397387195    4.39566760906595
C         4.70148315621324   -1.16437621068524    3.35515949424450
O         4.49354817888435   -0.30057021204091    2.20130510904008
C         3.32031522935126    0.33156415107943    4.73288783898174
C         2.96833390604395    1.27417351959470    3.81242539851184
O         2.74526058696113    2.48405583479116    4.38269201296026
N         3.21788097912884    2.31314946256700    5.69580274011511
N         3.43138110738543    1.01306656095830    5.90604685994501
C         2.37866140016560    0.91955415310975    2.49889551887546
N         0.95416798953520    0.71443451454308    2.82455990317813
H         2.92071410852955   -2.33976754232583   -0.42222405868149
H         4.52356716528592   -1.81155964360457    0.08993484541905
H         3.74881007438300   -1.34374530854812   -1.50339446907827
H         2.10080544436368   -0.06873543336065   -0.09610200742487
H         3.78963792856206    0.61452667670273   -0.06454699356609
H         2.99840593920469   -2.52757859973344    1.96053658115323
H         1.42202451625458   -1.84752406428391    1.85519854130792
H         1.79470214816946   -2.99287995541551    5.30387976813648
H         2.68165668256703   -3.74607066550854    3.94186907133502
H         1.00601701633588   -3.21622880436945    3.66649837365536
H         3.78934649020127   -1.74251721322385    5.25531059157088
H         4.88607848912826   -2.17818264162341    2.98261654427008
H         5.57804270079032   -0.82401855160515    3.91802660398072
H         2.46133821884662    1.86681591548814    1.95879766361511
H         0.79501611237373   -0.12170685098764    3.39832686131209
H         0.59011741907345    0.51261056433772    1.89707777402483
