32
 energy: -49.313244118564 gnorm: 0.143553440114 xtb: 6.4.1 (79825abcba525fcdf90b791dcacef51065a7a4e7)
C         3.75959486231729   -1.35776184815549   -0.44536570337432
C         3.01734146186822   -0.26516552832586    0.31464434170670
C         3.17763167177499   -0.34341359562385    1.85715396740086
C         2.35216726162972   -1.57225069964472    2.34516270033828
N         2.25361683713475   -1.61597924460735    3.82182357441835
C         1.81000067191155   -2.85502955141005    4.44464010002388
C         3.57152075317382   -1.16813129438182    4.36074074256876
C         4.78061696536919   -1.30113784785222    3.39357857958205
O         4.58302834828636   -0.44230127703410    2.23420970267553
C         3.33471563897504    0.27063887916793    4.68613285496179
C         2.80646650332312    1.16997481147660    3.80761016359690
O         2.72423650522021    2.32699846988454    4.50997432774498
N         3.22327446616914    2.09463316151572    5.80373098189078
N         3.57207960880057    0.81148001331893    5.91260441413487
C         2.45119429981148    0.99429302676137    2.37871308153938
N         0.98730746174670    0.94681730809149    2.19956451869249
H         3.23534556259308   -2.28931783125561   -0.20485182047675
H         4.78044209886005   -1.41946035871206   -0.06084689968798
H         3.57416084903490   -1.11634996758030   -1.49613811527365
H         1.98416756139053   -0.51841029443321    0.05197031873541
H         3.25369923905829    0.76884499682895    0.03434398793431
H         2.69957472274025   -2.52304309602795    1.91928183818409
H         1.31327123977558   -1.46717178462751    2.01248056859021
H         1.94818502740830   -2.78436365119600    5.53013357100599
H         2.48705269599019   -3.68068699495350    4.20441344618783
H         0.74582061265162   -3.02542303351737    4.25191624915246
H         3.85097814144556   -1.57400814520359    5.34024075924818
H         4.82630637229770   -2.33783511859124    3.04167174707361
H         5.74897326375203   -0.95680776365300    3.77402861127338
H         2.80537534935212    1.84174865909865    1.78523120794109
H         0.53347426706772    0.27331059787083    2.82733387682313
H         0.81233048146822    0.65125948845390    1.24273775710958
