32
 energy: -49.316248507046 gnorm: 0.147151744857 xtb: 6.4.1 (79825abcba525fcdf90b791dcacef51065a7a4e7)
C         3.45255632724119   -1.53603536321892   -0.52203470353444
C         3.02369721382935   -0.32270162356554    0.29419025266605
C         3.04883317560904   -0.43202503553762    1.84292141235160
C         2.25448344809980   -1.64492379682122    2.41517111430198
N         2.41588339254116   -1.72754015797167    3.88461872734346
C         2.17181722595383   -3.08508038688066    4.35094224196263
C         3.66611262750170   -1.13942224963787    4.44934379653576
C         4.83892964776232   -1.16273130002062    3.43004798207403
O         4.46596319055841   -0.52589320333336    2.17461540266361
C         3.30590056302003    0.27065684519655    4.78689451706127
C         2.79628704003776    1.15143609834731    3.87905293649985
O         2.52995723775036    2.32145080165815    4.51065009040102
N         3.04220040984109    2.18456295423048    5.81284341442224
N         3.41057230179507    0.91349917037285    5.98225255108007
C         2.54778517443822    0.98106859843862    2.42714005270270
N         1.14053294659569    1.36454034554746    2.20374936667855
H         2.82405685427641   -2.41191028773077   -0.32629934556064
H         4.44903922417318   -1.86736793781644   -0.22032117181981
H         3.52780400861061   -1.38321248399871   -1.60266927594560
H         1.98473109494906   -0.15089496008963   -0.00848239458951
H         3.58042011247174    0.55763804789044   -0.05029882202719
H         2.80012397057829   -2.40773826901889    1.84380158749109
H         1.21484182567905   -1.63607796443834    2.06862968871326
H         1.79220250421033   -2.99744893032883    5.37592909622002
H         2.99751941935677   -3.80289546281634    4.37879731422205
H         1.33538840683811   -3.37073596948160    3.70484368780619
H         3.93922342658192   -1.73786905018987    5.32656932938516
H         5.15392646090818   -2.17316833944832    3.14639121129657
H         5.65530775846203   -0.53545634353057    3.80564385914995
H         3.24529929088078    1.67423916300947    1.94877343039819
H         0.44732322280834    0.81816754120735    2.72777919129259
H         0.85656106550688    1.35598217956884    1.22764714741780
