32
 energy: -49.314692563834 gnorm: 0.149506785826 xtb: 6.4.1 (79825abcba525fcdf90b791dcacef51065a7a4e7)
C         3.79163918055453   -1.37488830679289   -0.36174702706126
C         2.94446375182999   -0.27629489639598    0.26889424066596
C         3.03146229966152   -0.36096447817908    1.81692975742344
C         2.32427987093286   -1.58969969992531    2.46476260940054
N         2.36372829963332   -1.66321667722868    3.94300169102345
C         2.00320786906655   -3.00441988030822    4.38019773166519
C         3.69350457756093   -1.13687698245884    4.37023910083632
C         4.78044608448714   -1.25671668747190    3.26606355339457
O         4.45861677986072   -0.43373980735803    2.10851759000965
C         3.44487104130498    0.29648549997047    4.71034150239180
C         2.83551986547280    1.14303476247191    3.83187700662316
O         2.68276693361684    2.33959308531968    4.45130873093832
N         3.05153953947431    2.18427182308679    5.79916661432130
N         3.51139824107319    0.93675830041882    5.90980310423250
C         2.37891450681389    0.97552991237004    2.43106189975644
N         0.91028910279749    1.00039475922056    2.29022874918499
H         3.37914324128589   -2.30507848417306    0.04454614310117
H         4.87856661495187   -1.31062901733826   -0.27091756330202
H         3.56033616927347   -1.26941047769486   -1.42577779520840
H         1.90307098542094   -0.52977862972911    0.04124107264202
H         3.26595386125786    0.74939986525167    0.04933691542072
H         2.81688392702254   -2.50308495087970    2.10540030894414
H         1.28392815848947   -1.57857515180037    2.12042486581742
H         2.47119308558429   -3.19753294155990    5.35286511766738
H         2.37510856802670   -3.76872056840795    3.69073937073403
H         0.91055000428428   -2.93666519662725    4.36740254894739
H         4.03917311443549   -1.63925345749651    5.28149310727919
H         4.82639321005141   -2.31022602461291    2.96828157341449
H         5.76619790834028   -0.98809967829816    3.66249462795367
H         2.86722715024954    1.75025915581206    1.83340701151320
H         0.48247100316204    0.42632677118511    3.02581548239159
H         0.63280030472816    0.86486537394601    1.32166250590817
