32
 energy: -49.315775258894 gnorm: 0.144007196089 xtb: 6.4.1 (79825abcba525fcdf90b791dcacef51065a7a4e7)
C         3.78524836092815   -1.30170972834657   -0.37214543547262
C         2.98984140306387   -0.20589880992906    0.32703142308384
C         2.93241057014847   -0.31977681382185    1.87457305777749
C         2.16355973055879   -1.57919342859811    2.37689047740415
N         2.13365703896529   -1.65999052267260    3.85497347819163
C         1.72491485298403   -3.01848826851742    4.18262433534124
C         3.46609656451921   -1.22397281124889    4.36718796070389
C         4.62789376921812   -1.30587826696814    3.33834113652943
O         4.32705033766809   -0.32886665214391    2.30117227987824
C         3.38986294404399    0.23342639288217    4.68686320573124
C         2.90638611289737    1.17160553641964    3.82330984955401
O         3.22394183344533    2.37638088730764    4.35852534648357
N         3.94807259603331    2.13911467334683    5.54012518533461
N         4.11637867533719    0.82258703897636    5.67587679346614
C         2.18536486215621    0.93558808387422    2.54924023968859
N         0.71912387219400    0.89228116558343    2.70916102379827
H         3.94969793868122   -1.06003847521824   -1.42809625909646
H         3.48835635591748   -2.34134737808526   -0.21466786713507
H         4.69650866466679   -1.29753951438957    0.23314407954487
H         1.98026892349325   -0.17664091904475   -0.09780528961565
H         3.46830861070367    0.76719306946735    0.16038097444007
H         2.58638440004057   -2.53523258433602    2.04031796628891
H         1.14949128476048   -1.42662866783852    1.99035057009316
H         0.80547656902815   -3.13343381379161    3.59627510068523
H         1.56417750099881   -3.04113418724621    5.26496862858812
H         2.46283044383482   -3.79826081912118    3.96793626426395
H         3.69401131259200   -1.78118646473262    5.28360518589511
H         4.78905718052936   -2.30408990074572    2.91612430558808
H         5.50271494234428   -0.88090754352484    3.84342247110101
H         2.38979495778083    1.82603736114274    1.94827900597172
H         0.34511772096518    0.03219270737588    3.12633899102874
H         0.33867364588197    1.05193042919420    1.78004394091392
