32
 energy: -49.315501471994 gnorm: 0.141496454488 xtb: 6.4.1 (79825abcba525fcdf90b791dcacef51065a7a4e7)
C         3.57143763969040   -1.38704845233676   -0.53738017533662
C         3.12497588441513   -0.17572298644312    0.27236336333171
C         3.10319250887249   -0.40919770022823    1.80734436182168
C         2.48376273185614   -1.74612414555313    2.31579204577506
N         2.36739119787365   -1.66734506657564    3.78969951239913
C         1.89434491795081   -2.96579815225365    4.24816236141745
C         3.59288160386406   -1.09942260926317    4.42492196148135
C         4.77526878338301   -1.16303977894862    3.41848246880090
O         4.47867027864841   -0.30384131040539    2.28068414622692
C         3.29953393263199    0.32807452101469    4.75388300207962
C         2.80755052089390    1.17457177159529    3.80464694122861
O         2.79273361889242    2.41581179020041    4.35043499804635
N         3.24760784108603    2.30534295855791    5.67622716846023
N         3.59115682674494    1.03262381335636    5.88155743967802
C         2.32796205025760    0.85132595055141    2.43923992569909
N         0.87282774773400    0.68895950130630    2.62236315597157
H         2.66396431156067   -2.00097082025750   -0.54588245207566
H         4.39178506465129   -1.93624207146123   -0.06918474182861
H         3.83990374406259   -1.19115768394001   -1.57965695373710
H         2.17289873829429    0.30467934099888    0.02068586128454
H         3.82606487860639    0.62936175542776    0.01953174872618
H         3.15661337576541   -2.57773535605087    2.06726149490866
H         1.51204734857247   -1.95118675453651    1.85238892522586
H         1.85534774444551   -3.07118811758231    5.33892211162621
H         2.58957985675690   -3.72941573073079    3.88573295346771
H         0.86724265848612   -3.18062658065624    3.93580789407462
H         3.92989903385424   -1.55838092607254    5.36195410361806
H         4.98300884507678   -2.19844094512878    3.12615446995278
H         5.54453084757888   -0.76414972803237    4.08940866632903
H         2.47990308650746    1.71220664416562    1.78224346882879
H         0.65804860243700    0.07398423403595    3.41567618495318
H         0.36345211122515    0.43671375481764    1.77951242268662
