32
 energy: -49.310265476458 gnorm: 0.151635021339 xtb: 6.4.1 (79825abcba525fcdf90b791dcacef51065a7a4e7)
C         3.68615633218017   -1.19127551111725   -0.55216658537703
C         2.93026675594555   -0.15791322563461    0.27434138282306
C         3.03708636951421   -0.39764209490735    1.80478944399448
C         2.28407441654443   -1.69093595800257    2.24062038363771
N         2.24749053216561   -1.53574583979401    3.71260182026566
C         1.44472057036108   -2.55585696100850    4.37205240240091
C         3.60284407510120   -1.27429321332733    4.28051863633258
C         4.79274895365857   -1.31160886767330    3.28164879867763
O         4.45557593559795   -0.48206384178625    2.13319457489459
C         3.51618120840946    0.15416987454555    4.70946969936918
C         2.99029534935168    1.08851960334316    3.86680191560382
O         2.99383075127862    2.27790173523396    4.51806112403932
N         3.54404125586420    2.04979936390213    5.79166879746995
N         3.86161395256027    0.75700027493523    5.88009131485545
C         2.42986281473409    0.91794404880797    2.50457997899611
N         0.97103777231018    0.79284529763613    2.68758985854616
H         3.16788547617345   -1.45733537660430   -1.48011500506453
H         3.80780329171150   -2.08871680925794    0.05905483761959
H         4.72686129846957   -0.95059658690382   -0.78837614247940
H         1.86338733982772   -0.21156891826954    0.03048028625949
H         3.31834253615167    0.84452356424195    0.05495880331976
H         2.88935784492475   -2.49733409038250    1.80538865923505
H         1.25464752774789   -1.55415106608042    1.89048598875017
H         0.42029878806733   -2.67909459606935    4.00089589370141
H         1.37228988168318   -2.18670904686521    5.39981799660148
H         1.97231201150445   -3.51478863844384    4.39949191834730
H         3.70286222674032   -1.90877258001320    5.16916086781086
H         4.99218890740599   -2.32570969080968    2.91765650515491
H         5.71288323032340   -1.02834866029304    3.80522870377588
H         2.52712629518462    1.72010493177678    1.76774640970038
H         0.77629472377696    0.31730790645522    3.57618963244663
H         0.50938782651706    0.29757340500179    1.92925359087050
