32
 energy: -49.316735394300 gnorm: 0.147225468482 xtb: 6.4.1 (79825abcba525fcdf90b791dcacef51065a7a4e7)
C         3.79616003953196   -1.37528006857541   -0.51101967222797
C         3.18153115361516   -0.24440431126278    0.30486845262897
C         3.14853799777605   -0.37260839795994    1.85200347724082
C         2.36041598055984   -1.66680203873721    2.21739520985511
N         2.30485882199480   -1.69180545567572    3.69673286968228
C         1.90683997271468   -2.93982407541740    4.33232070484098
C         3.44100872106234   -1.13080190363006    4.48559826648731
C         4.72094844805198   -1.15689012204264    3.60464382392653
O         4.51794771266575   -0.44977901425731    2.34783744352907
C         3.24126336147143    0.33218931508735    4.71313888159942
C         2.79598452478438    1.19915847263611    3.75933303865615
O         2.75881644892810    2.40844400486600    4.37172829654781
N         3.30734457508995    2.32122484249203    5.66337395527080
N         3.52571758777021    1.01886938737616    5.85359471598612
C         2.32923885971526    0.90661445553434    2.38259931426015
N         0.88010488173861    0.66712273280177    2.52390481409552
H         3.32398910683394   -2.34044778937378   -0.29657461844809
H         4.83787962379316   -1.57245609290006   -0.24695071336990
H         3.70790898702066   -1.16028638310255   -1.58002743309256
H         2.14233799265490   -0.08839860268829   -0.00548400330479
H         3.76090889791319    0.64099085752774    0.01502734395748
H         2.90514245362550   -2.53586368967750    1.82486809148603
H         1.38180636066205   -1.59669556313451    1.72910000767793
H         0.94739039085345   -3.27417548967262    3.91994916283516
H         1.71611387099939   -2.80229635246239    5.40121180290879
H         2.73697635905808   -3.65362494768640    4.32813607023816
H         3.53633560649326   -1.65460063023269    5.44413902464020
H         4.91075017310413   -2.19800648180476    3.32053258301235
H         5.53559353353997   -0.59468318705673    4.07506501582640
H         2.56366858136191    1.79183580464783    1.78487709457465
H         0.73541296664214   -0.20623731877123    3.04349763009797
H         0.46119220017140    0.57867950131896    1.60185341764742
