32
 energy: -49.314582752708 gnorm: 0.144182440192 xtb: 6.4.1 (79825abcba525fcdf90b791dcacef51065a7a4e7)
C         3.91006071241792   -1.33229038440303   -0.48396687939580
C         3.25599608166181   -0.22662874808320    0.33580985128283
C         3.10288859193109   -0.38484994142350    1.87290964895369
C         2.43829844000136   -1.73241615933367    2.28760211263384
N         2.34508266287657   -1.81986435607247    3.76266662449019
C         1.87745528137039   -3.08702932361527    4.30631995149346
C         3.46112398302944   -1.13900824517859    4.48291444063295
C         4.70782916443035   -1.06412447866663    3.55818439589406
O         4.44583180541161   -0.20434089345415    2.41236273476965
C         3.25665533426375    0.32267427999182    4.71463200765166
C         2.79147940172176    1.17896425802720    3.76067540623192
O         2.77748930878836    2.45700994544195    4.21364828875638
N         3.30493589963715    2.34788259732545    5.51239003406320
N         3.51612419143222    1.06789064607425    5.82387126790013
C         2.24927072757092    0.86619965363044    2.41642194819234
N         0.80337395469813    0.64608421451866    2.61198407166420
H         3.28179280774907   -2.20356575580304   -0.26800514470576
H         4.94064080156486   -1.65616459553644   -0.32025778901466
H         3.93106807887588   -1.10521204912550   -1.55391185303565
H         2.23635919328536   -0.08860415376639   -0.04084474631390
H         3.84557485253654    0.67860579881579    0.14460750633049
H         3.04667597647938   -2.52541894329425    1.83252411522524
H         1.41370112917848   -1.75744843689911    1.89953298224960
H         0.78433440778920   -3.17173934024145    4.28912632584513
H         2.15967094530305   -3.24413294595690    5.35202127933708
H         2.16575897534031   -4.00272314544322    3.77997271236730
H         3.67236114806307   -1.63385148073350    5.43830009261926
H         5.00390945980283   -2.03984325530711    3.15696562983380
H         5.51960333738876   -0.57183161265721    4.10562369057816
H         2.44634004323156    1.71109227623991    1.75071470172891
H         0.52616034302591   -0.18129347996622    3.15260314796639
H         0.22535063311696    0.65696316650638    1.77576669347714
