32
 energy: -49.319718547494 gnorm: 0.148109256322 xtb: 6.4.1 (79825abcba525fcdf90b791dcacef51065a7a4e7)
C         3.73907316870018   -1.26544649691391   -0.42330822863424
C         3.02453239786947   -0.13479249018541    0.30701710880925
C         2.95297173253916   -0.33721883976126    1.84489041189591
C         2.17814379086637   -1.58746003760100    2.36076176190024
N         2.22249982317560   -1.67419605709426    3.83814495844605
C         1.65338755253615   -2.94521032380746    4.26308653525397
C         3.54044337412346   -1.26536658414595    4.40713834755585
C         4.61762407466913   -1.36640736240136    3.29157591193690
O         4.36176352321951   -0.42256851146466    2.21246455838025
C         3.47307410514630    0.20382119812771    4.66975007822068
C         2.97260988356530    1.13722219521020    3.81070844615386
O         3.11115656207988    2.38464711263152    4.32404735575962
N         3.66662154468260    2.21277823661249    5.60418740576320
N         3.89485247574869    0.90710784645405    5.75629237361143
C         2.32383967392840    0.99852809641386    2.48455216584066
N         0.88926467301877    0.85348162865765    2.79803092027487
H         4.04293470401480   -1.02701482992092   -1.44863710805133
H         3.15578624704660   -2.18443015899860   -0.51836553250089
H         4.67235800098630   -1.49281370828273    0.10021035044943
H         2.02643123487417    0.09491149483682   -0.08235290215825
H         3.67893816925387    0.73288955228131    0.15704373023015
H         2.72676588131453   -2.41783332534046    1.89647021314933
H         1.12437495962002   -1.54561677835898    2.06269413557975
H         0.59488523825139   -2.78322036641581    4.02704254208345
H         1.83348405486705   -3.18316987814710    5.31606279414626
H         2.05323502263413   -3.74039232453884    3.62554186520069
H         3.72395577491921   -1.94166977849946    5.25045910530501
H         4.56287125917600   -2.38771855990971    2.89839307985822
H         5.58533535187690   -0.99940413971907    3.65194083275116
H         2.48740972604127    1.87024307328494    1.84486174205332
H         0.81956597101226    0.36978082081201    3.70071904397136
H         0.37602429834128    0.35375633717548    2.07667956999523
