32
 energy: -49.316331903417 gnorm: 0.151232407674 xtb: 6.4.1 (79825abcba525fcdf90b791dcacef51065a7a4e7)
C         3.70740526298759   -1.48346511562118   -0.51374559764354
C         2.99223888631438   -0.42155726591624    0.31282010192788
C         3.06910691773545   -0.39060947069526    1.86339585833239
C         2.40614130549835   -1.67747927266637    2.44134684295691
N         2.40277539074606   -1.69516885219035    3.92182901264302
C         2.07958626064797   -3.05044238997686    4.34458640644620
C         3.66222792520452   -1.09059968351607    4.44732464221098
C         4.82463344811303   -1.12018453312591    3.41633231639213
O         4.48568510456700   -0.37789023870793    2.21014372968055
C         3.32765609462842    0.32726203536931    4.77860416957080
C         2.76659798737417    1.14666061878875    3.84401648303269
O         2.45168618890152    2.29591219294529    4.49118904078066
N         2.82412450384747    2.15240786448822    5.83934890276814
N         3.42777266576144    0.97028692465360    5.97425417200272
C         2.44955149116269    0.99266505042897    2.40367062901806
N         1.00213683200113    1.16464962798894    2.17405152215032
H         3.57313542462290   -2.52803445261767   -0.21154150985830
H         4.78027543708427   -1.29392469345333   -0.43119553528910
H         3.52785879708893   -1.29879532710944   -1.57697100312465
H         1.95324752412497   -0.42772501678896   -0.03508471745857
H         3.53340689303062    0.49410539441147    0.04391466304994
H         2.91941116161302   -2.53820846055414    1.99215651506115
H         1.33559196695120   -1.63643580934907    2.21055803996634
H         1.00014949561154   -3.17126574347187    4.19424463210741
H         2.26163693116036   -2.93323907803711    5.41740486420918
H         2.66763922678308   -3.87173925882619    3.92230595291505
H         4.03749152153651   -1.65794778822510    5.30729329496253
H         5.00969996344745   -2.17210056578855    3.17160753946223
H         5.83381490947031   -0.76540495077949    3.65445744319657
H         2.95732049942317    1.81856810637537    1.89780426609548
H         0.51634216623114    0.32421068264890    2.50772224076048
H         0.82814472966175    1.14325920854747    1.17267346296100
