32
 energy: -49.312822725287 gnorm: 0.148137703327 xtb: 6.4.1 (79825abcba525fcdf90b791dcacef51065a7a4e7)
C         3.75846751851751   -1.37239386938993   -0.52050218497173
C         3.09418333557444   -0.23460909279616    0.24532704159176
C         3.17591893260037   -0.37383887443559    1.78969939754221
C         2.38479379089466   -1.61793309275810    2.29559977798967
N         2.26083646818945   -1.66918923909246    3.77010276760150
C         1.65127105619583   -2.88773863841694    4.28343378783976
C         3.48680323059826   -1.17450345252656    4.46303975238948
C         4.69613618852032   -1.14663089863515    3.48746610046803
O         4.52695991866693   -0.27830772647184    2.33067227396122
C         3.30250488144961    0.28536561060366    4.72155994982838
C         2.82911959516486    1.17831484337057    3.80602601400368
O         2.85924750905873    2.40856672325183    4.37554645652174
N         3.40034288881684    2.22215046628746    5.65979860012864
N         3.74217899534465    0.94366641431227    5.82899390885476
C         2.37257029322825    0.86433616214698    2.43059539472660
N         0.91140518443913    0.70678131066560    2.56282931920857
H         3.33155267724007   -2.37852911454549   -0.44358414175344
H         4.77591070540759   -1.44391590084367   -0.12873126417606
H         3.84640473906011   -1.10040021309401   -1.57647312297656
H         2.03074161278366   -0.18791603969235   -0.01446193643572
H         3.51767657408582    0.75398980251440    0.02867814138114
H         2.86475611261687   -2.51871839433989    1.89026703595578
H         1.38232101219274   -1.62927506838524    1.85294461047075
H         1.65634121821680   -2.65917876611401    5.35586995701151
H         2.09268964758935   -3.88207997772398    4.16404609633049
H         0.60323718263302   -2.98263513362641    3.98131581537349
H         3.71188554757125   -1.82482885983347    5.31665999275074
H         4.85677196598033   -2.13260043577337    3.03721351826639
H         5.58894789450223   -0.79230614088904    4.01506497700002
H         2.63324182423122    1.73782815689163    1.82651917640666
H         0.83199393895138    0.08013263015335    3.37194952889089
H         0.51303596503093    0.09304427163349    1.85705483110303
