32
 energy: -49.315070878816 gnorm: 0.141911298325 xtb: 6.4.1 (79825abcba525fcdf90b791dcacef51065a7a4e7)
C         3.73238985310304   -1.32950500982983   -0.29168716352654
C         3.04384112807658   -0.11669069837441    0.32256376192573
C         3.08025229124111   -0.36890090386674    1.85429999416770
C         2.49502321585853   -1.74269531048698    2.30126809410772
N         2.36902325100493   -1.80985658253096    3.77495906039958
C         1.86767414217665   -3.03908408281033    4.37294751846914
C         3.53803084902597   -1.14851487569408    4.42604936854091
C         4.71418859196053   -1.17551129026532    3.41070154278701
O         4.48019893214564   -0.31465567775158    2.25963501027995
C         3.30131907196065    0.30514870228287    4.67674043609534
C         2.76920379352181    1.20322560562467    3.79926361214542
O         2.79795039236696    2.43525478783129    4.36500087361796
N         3.38134001378352    2.27024143069366    5.63356933557116
N         3.73448498016207    0.99091324240778    5.76998220042755
C         2.24098788314108    0.86534689288940    2.45551690784710
N         0.77081121295414    0.75932486038414    2.38730627851725
H         3.19460781978224   -2.28373803369277   -0.26502960130646
H         4.73482368239563   -1.40089112293197    0.13705627750625
H         3.69004226320059   -1.07538965914165   -1.35489937290795
H         2.04859023775763    0.02219020811205   -0.11420461525275
H         3.63400982295336    0.78389677862859    0.11219703405098
H         3.15085748907583   -2.53043399200087    1.90703237023110
H         1.50672049595492   -1.98898810799055    1.89676654268740
H         2.67918077632719   -3.49626163445592    4.95159276976991
H         1.41620744174994   -3.74016221314163    3.66408521071078
H         1.05953668022896   -2.79052471181534    5.06849600589701
H         3.83333901118958   -1.61716264832563    5.37231311270533
H         4.98588523123920   -2.21243401706524    3.18345857888689
H         5.56881234718325   -0.72854377903321    3.93114139677297
H         2.47621463367946    1.73955888503860    1.84211021668982
H         0.39460766628051    0.02907480678717    3.00283529405034
H         0.40974310269857    0.63862738678596    1.44467657821467
