32
 energy: -49.316625405718 gnorm: 0.141337599401 xtb: 6.4.1 (79825abcba525fcdf90b791dcacef51065a7a4e7)
C         3.86376317346368   -1.30040272129728   -0.30404816155080
C         2.99769597145788   -0.21386824758891    0.32180528395496
C         2.96431899794519   -0.37732942229989    1.86560516296806
C         2.34058216888004   -1.73114494495225    2.32136883262762
N         2.30037616772729   -1.74475579934482    3.80135191298548
C         1.91838078577608   -3.02958859740247    4.36988123409635
C         3.55043589070741   -1.17631346124550    4.38624011294419
C         4.72559588773077   -1.12168540373809    3.37084767899991
O         4.38495347285396   -0.33595489834357    2.19298180123483
C         3.34523701982039    0.26748830084490    4.71081085373916
C         2.75151197556146    1.14116111184641    3.84834881867068
O         2.80705698645617    2.39132594674313    4.37063568443679
N         3.45117698877485    2.26059988889664    5.61355922321202
N         3.71188872624786    0.96833845861575    5.81871826738795
C         2.25671019916642    0.93747673766168    2.46541238885908
N         0.78499433426584    0.84511743266574    2.41216772796907
H         3.40172765516948   -2.27656456792672   -0.11935372752902
H         4.86293048996133   -1.19262530369214    0.12471657469955
H         3.97673290172728   -1.07963839543634   -1.36954761381598
H         1.98454737340057   -0.08707651344863   -0.07572789796862
H         3.56459043122370    0.70674673478872    0.13549967742128
H         2.86337775117433   -2.59863579670343    1.89684907282247
H         1.34964388081148   -1.77604418620055    1.85548334737592
H         2.23102254858449   -3.19791514183068    5.40733290018098
H         2.29046157610459   -3.93790086117003    3.88579114437415
H         0.82389854954982   -3.03135507755536    4.39746988830878
H         3.80887760945768   -1.85053332172619    5.21139959551348
H         4.90327178000925   -2.17177574141678    3.11314876396879
H         5.59687920678551   -0.55852239437639    3.72402207787594
H         2.74562745651489    1.76625605887081    1.94586378261758
H         0.46807107625368    0.09740536507533    3.03998660113359
H         0.48757508945126    0.55356143582470    1.48479201581231
