32
 energy: -49.317536549315 gnorm: 0.148247208383 xtb: 6.4.1 (79825abcba525fcdf90b791dcacef51065a7a4e7)
C         4.24365628849137   -0.68156018551319   -0.29428194956959
C         2.84840583308761   -0.62277383976951    0.31575282487679
C         2.90897667466926   -0.59026820250290    1.86701882300057
C         2.15623708376946   -1.80479818241183    2.48982269086447
N         2.22058246964720   -1.71531050717380    3.96630612333783
C         1.80040917351044   -2.97476838748092    4.56393613640799
C         3.53082272285237   -1.18008525368531    4.44030466862405
C         4.67055055637397   -1.34542787584159    3.39690190723395
O         4.32592808692431   -0.57211701268467    2.21199542456055
C         3.38772794746706    0.29195931568339    4.65155085027613
C         2.80215310181005    1.13568602470511    3.75439884997383
O         2.79065234963941    2.35560223247725    4.34638964965854
N         3.28422417443285    2.24964167412381    5.65863886893522
N         3.61799811634219    0.96692548483270    5.81106780923553
C         2.44224133863574    0.87532698818889    2.33965294559262
N         0.99502480420899    1.08284426246465    2.14011923307966
H         4.81127893586608   -1.58271862802954   -0.03699068373004
H         4.75189774161963    0.25716433170105   -0.06130683907395
H         4.07897384758369   -0.69463586684718   -1.37571472619634
H         2.34128796257701   -1.51551582956981   -0.06689853194441
H         2.38865842505768    0.27896900638765   -0.10745304603172
H         2.80695645198498   -2.64060081637733    2.19987287375594
H         1.14857918624777   -1.91575991373314    2.07348512574532
H         0.78002987433924   -3.12741039704496    4.19257221287396
H         1.69756918520684   -2.94890175792885    5.65323561549870
H         2.45875212253862   -3.82013154610977    4.33898878940450
H         3.87105356289676   -1.63881292361931    5.37628790693811
H         4.82157711469020   -2.38968342507538    3.10128645610614
H         5.62413116844050   -0.85287525935246    3.61847647863402
H         2.99763314184092    1.58208469067237    1.71685322612478
H         0.46001723651808    0.37697090675485    2.65894476447282
H         0.84883796360769    1.07080624620628    1.13415038983449
