32
 energy: -49.309063049001 gnorm: 0.141721113873 xtb: 6.4.1 (79825abcba525fcdf90b791dcacef51065a7a4e7)
C         3.64687356722747   -1.38964869580637   -0.51904333808946
C         3.01463048121075   -0.24040702997625    0.25673656328386
C         2.99634464298197   -0.34823896613112    1.80566837836045
C         2.24755851789931   -1.58940329124637    2.37874370036535
N         2.25866494976121   -1.69032874534468    3.85584982919067
C         1.65138122339389   -2.95314074516755    4.25139221093014
C         3.55701573632775   -1.19929483015385    4.40452211266958
C         4.69036806903171   -1.19179574077611    3.34128958051024
O         4.41867839925156   -0.52541563361600    2.07523268609316
C         3.44527238804814    0.25602978491536    4.72320725448484
C         2.91092884168254    1.16924203773674    3.86287299795190
O         2.96695219479183    2.35336783279625    4.52127151689668
N         3.69399815574645    2.16096506343319    5.70922109080021
N         3.97540858791144    0.86161956034262    5.82106883778779
C         2.36551829317401    0.95906091227406    2.50008875640482
N         0.90659397696888    1.04172902112703    2.70507373511914
H         3.81141582616586   -0.96053206180148   -1.51366164671684
H         2.98710587513213   -2.25912356909274   -0.56914875235651
H         4.59733823233269   -1.71550635263705   -0.08635192661871
H         2.03307885952887   -0.07747058099315   -0.20216107818909
H         3.65475324259489    0.62910208377986    0.06229416040549
H         2.64362092447381   -2.51554259258198    1.94116712238479
H         1.21093023114646   -1.59595154854566    2.02323997800153
H         0.55824011520803   -2.92943241493544    4.16853628178088
H         1.74700218953935   -3.29468015441223    5.28677908483221
H         2.08153105679026   -3.74646877375873    3.63150722851237
H         3.77906633446971   -1.73731928736617    5.33375621397660
H         5.03561316813646   -2.19582761106004    3.07037810090306
H         5.56676006855401   -0.73619527070587    3.81603652653241
H         2.41649931643723    1.83261374127683    1.84422861101932
H         0.61259599924289    0.30173294974938    3.35287097192948
H         0.36197314005478    0.88911733022961    1.86033314273255
