32
 energy: -49.316361055586 gnorm: 0.144151328509 xtb: 6.4.1 (79825abcba525fcdf90b791dcacef51065a7a4e7)
C         3.99399485389154   -1.35429601223353   -0.25626703925826
C         2.96714601618474   -0.36224946099753    0.27641222204316
C         3.04036409437015   -0.33288232011192    1.82719535046070
C         2.24506347569631   -1.56357113848562    2.35869001374311
N         2.27416510663619   -1.68049726668539    3.83437055711132
C         1.81132362502971   -2.97948562126524    4.30164820082112
C         3.56570936829351   -1.19804612064174    4.40623113722947
C         4.70735155078212   -1.23490063004337    3.35252249649125
O         4.44863113660972   -0.37798585741797    2.20381081942113
C         3.35723611045184    0.25866323124831    4.66420986223768
C         2.80067221949832    1.17937323541965    3.82624561808556
O         2.73412000777469    2.38122125620158    4.45067580721125
N         3.39259533423243    2.19783117695590    5.67934058046045
N         3.78596254411321    0.92622872582261    5.77038941687473
C         2.32462380436025    0.97281488342281    2.43716648781041
N         0.85158324212794    1.00687988808735    2.51656352909468
H         3.98032221235600   -2.24128093540101    0.38681274522519
H         5.02074862170068   -0.98547132531745   -0.19680658594896
H         3.72673538699451   -1.51485879354332   -1.30487568875045
H         2.00484318681532   -0.67433756179341   -0.14448340976979
H         3.18383884357248    0.61740247009534   -0.16736402571136
H         2.64988252058489   -2.44870975566828    1.85004102151306
H         1.23353750898459   -1.47497652155711    1.94639142411174
H         1.86088483466347   -3.14046244982796    5.38516783728075
H         2.46504793838300   -3.74666757764330    3.87515685284943
H         0.80456102390612   -3.12328912886528    3.89617904665677
H         3.70506925193040   -1.81171361841199    5.30414189678053
H         4.87765097308026   -2.23638395682391    2.94179580103586
H         5.55657206773625   -0.81741159233785    3.90528534856212
H         2.72388994009698    1.79042976972818    1.83058719590433
H         0.71090671099223    0.17641443149655    3.10325549936223
H         0.39811603729816    0.81217952674156    1.62777329567366
