32
 energy: -49.318910375295 gnorm: 0.145313220396 xtb: 6.4.1 (79825abcba525fcdf90b791dcacef51065a7a4e7)
C         3.89359772116179    0.30544864298229   -0.26941170248830
C         3.25461598275968   -0.90154318669020    0.40675037675499
C         3.03095100027568   -0.67721777370786    1.92688318001539
C         2.16029722398061   -1.80284861751905    2.56288778164910
N         1.98569509350769   -1.62533111061800    4.02239226820622
C         1.51521471573552   -2.91636398612916    4.50387302891588
C         3.32282766223325   -1.21091045708024    4.54027472974252
C         4.51065995342812   -1.64377365204442    3.63656518059890
O         4.37832994079166   -0.77290539133264    2.47688636509485
C         3.34909102189545    0.28042397605592    4.62541072332200
C         2.91191218017025    1.06799264752208    3.60156276863500
O         3.08050411206842    2.35394981114071    3.99738076219441
N         3.75373023162419    2.31517908263268    5.23111583437164
N         3.98801895717036    1.04233397513732    5.55511363975057
C         2.43001235885442    0.78474293360881    2.22811037572820
N         0.95511447138502    0.78098623817796    2.18367006525048
H         4.74156920213497    0.59668777335373    0.36035408087161
H         3.14249666711956    1.08816131775870   -0.39979027503378
H         4.30048564874305   -0.00981832648269   -1.23472879134905
H         3.87885963274777   -1.79527041474577    0.29652166420097
H         2.30823255083257   -1.17469985420194   -0.07631782309791
H         2.68985930538977   -2.74986423325719    2.39318785716221
H         1.15671193430460   -1.85532748655339    2.12575341230468
H         0.55557876978775   -3.03796647017115    3.98744650933927
H         1.25533906030344   -2.92551666969058    5.56698138450759
H         2.22875027608511   -3.72630684688868    4.32080149334906
H         3.38170394351745   -1.63805169401044    5.54840997526801
H         4.56389312222909   -2.69607916970097    3.33575544794636
H         5.51650839095246   -1.38825451624563    3.98869902928306
H         2.83869657399633    1.59169483804714    1.61357653899767
H         0.60216537937389    0.22384694979296    2.97024045495427
H         0.61702987973366    0.44535949221730    1.28559305591419
