32
 energy: -49.316031554434 gnorm: 0.147157760768 xtb: 6.4.1 (79825abcba525fcdf90b791dcacef51065a7a4e7)
C         3.72671328890053   -1.43545788642719   -0.37154263134329
C         3.04860055750355   -0.25896727108072    0.32008952506720
C         2.99825401087468   -0.32101927787905    1.87082044965420
C         2.25781523426920   -1.58021627413402    2.41465678049642
N         2.28675028456749   -1.76930035273341    3.88283989741511
C         2.15475482736347   -3.15660821287900    4.30461648173903
C         3.51740057435071   -1.15797859635173    4.46563985941002
C         4.67058296911434   -1.25449664783310    3.42840234561413
O         4.40318826982606   -0.46281591620947    2.23570817232067
C         3.16803119771153    0.27057197510938    4.72869988153948
C         2.82391529927419    1.18801895447483    3.78026451482642
O         2.95922592192347    2.39352918427962    4.38624888030680
N         3.28606797839680    2.19790438489130    5.73966825656911
N         3.48860108326976    0.88878477734352    5.89837126104387
C         2.36158103411003    1.06755310345270    2.37649663062646
N         0.89806023114831    1.17988366542193    2.22549497969086
H         3.09006901113169   -2.32717168691311   -0.36817166351904
H         4.66402665165832   -1.73888007106750    0.10086516997785
H         3.99582177668117   -1.27882261757952   -1.42027240624713
H         2.06900284792845   -0.08281433948381   -0.13809965351462
H         3.62082385412826    0.66624424079372    0.17812048808509
H         2.64967011503409   -2.46658712605251    1.89806303971660
H         1.20004785501920   -1.49430386071280    2.14121364883314
H         2.27818759197887   -3.06850924045120    5.39061260808230
H         2.97807818451333   -3.79414263301057    3.96770846132767
H         1.18126514754536   -3.62439212642458    4.12530760908477
H         3.88007948973372   -1.75277565643900    5.31235892469368
H         4.82938097668283   -2.29008033397635    3.10744006099649
H         5.57767415959552   -0.97119299227133    3.97424477902587
H         2.82386650504907    1.89181805498100    1.82629173677868
H         0.24695169145051    0.65205194142454    2.81805008558810
H         0.56424563265669    1.05864086558285    1.27294219515370
