32
 energy: -49.316194839300 gnorm: 0.151631215241 xtb: 6.4.1 (79825abcba525fcdf90b791dcacef51065a7a4e7)
C         3.28858975584746   -1.86402057492038   -0.11502560999189
C         2.71830767902899   -0.57954217011121    0.47422448513453
C         2.96250775532704   -0.41446576879213    1.99877942136286
C         1.89384974238501   -1.28399361580663    2.72780342747323
N         2.46037041812250   -1.90185194373128    3.94823659277978
C         2.82445335687645   -3.27164321022041    3.61498460301607
C         3.60641863061893   -1.11980248333919    4.49854773119287
C         4.82475057004698   -1.02979591389212    3.53804102132859
O         4.37263519408135   -0.73684541018242    2.18506304969566
C         3.23215724502161    0.31081387480010    4.71134229893550
C         2.92014757202645    1.28433017658562    3.80880678964667
O         2.63048541974294    2.41445915799472    4.49995457241932
N         2.62000707500595    2.03872700794407    5.85478089367568
N         3.08977319844261    0.79582833697432    5.97529286071187
C         2.82264345379206    1.15288021279200    2.33502147545413
N         1.55999039096552    1.78299699794446    1.90377571689749
H         2.74019891498955   -2.72497813604106    0.28309543669148
H         4.30138740139276   -2.05006544521620    0.25023967899290
H         3.31415809878526   -1.92065474845780   -1.20723756683467
H         1.64545349622885   -0.49394652621468    0.26871013715147
H         3.25487817325960    0.21429643271330   -0.06011943839302
H         1.54585652926278   -2.14521643003245    2.14191212384532
H         0.98675042097314   -0.71569543879910    2.96281814539158
H         2.97286182053593   -3.77764227820697    4.57640258329715
H         3.66599939967443   -3.42032550185596    2.93123586612350
H         1.87612233879689   -3.69482123773692    3.26822206236712
H         3.83994491618314   -1.61317144453830    5.44949739388182
H         5.36674436283981   -1.97107672659571    3.39347156148716
H         5.49622042554670   -0.23924326848460    3.89184054073171
H         3.62017811838508    1.71641808914662    1.84287361441161
H         0.74858528852857    1.42636774949784    2.42156675813091
H         1.41452859119772    1.56672609348783    0.92114833051665
