32
 energy: -49.314653703559 gnorm: 0.145329915414 xtb: 6.4.1 (79825abcba525fcdf90b791dcacef51065a7a4e7)
C         3.01244804623872   -1.66354640083347   -0.39147169771710
C         2.98975979579103   -0.28943036228373    0.26702085249163
C         3.08293062605820   -0.33626845078584    1.81630359257167
C         2.31625574459762   -1.59069621599568    2.33418891853969
N         2.45769717627783   -1.66235169272881    3.80626619305300
C         2.01287092696511   -2.98159366765771    4.23249570424226
C         3.76001937853270   -1.16077840837972    4.33565387915901
C         4.87399797487114   -1.21057268684137    3.25325874534111
O         4.49174198272181   -0.29083372991407    2.19083778165537
C         3.46705756992348    0.23914176967039    4.76740973514807
C         3.04216900759689    1.17371492799534    3.86980343492623
O         2.75263695787569    2.29111724459566    4.58139614221489
N         3.08783758202316    2.04994357012025    5.92538818076448
N         3.44955110749847    0.76931613276591    6.02108110600648
C         2.59773015668533    1.05636333613660    2.46000487449963
N         1.15399598749555    1.34946440341436    2.54388712184609
H         3.16347738327366   -1.48057005865684   -1.46114015131645
H         2.05791927455752   -2.19382871666682   -0.35318354909359
H         3.83824437271528   -2.34291523250326   -0.16058960203169
H         2.08608313848492    0.23143781022103   -0.06860348471180
H         3.92763966241461    0.17671145147448   -0.05963525686061
H         2.63375771405459   -2.50112419165670    1.80846463681792
H         1.24550512252448   -1.42757455498695    2.16713101543855
H         0.92673828409891   -3.08165993078176    4.11985786389198
H         2.17969503954793   -3.16935742500194    5.29773416857091
H         2.55256800445614   -3.73649873570097    3.65154732452175
H         3.99990792450958   -1.86824323984491    5.13827440068065
H         5.02477723853669   -2.17582663823983    2.75705557782281
H         5.85828758133674   -0.91533874968243    3.63408709953200
H         3.05912956229746    1.87790194868898    1.90499957313926
H         0.71226010736108    0.46422210618115    2.81753966542340
H         0.90748048059951    1.58714465447380    1.58668963729751
