32
 energy: -49.338635865121 gnorm: 0.122989852684 xtb: 6.4.1 (79825abcba525fcdf90b791dcacef51065a7a4e7)
C         3.58369000000000   -1.31140000000000   -0.47862000000000
C         2.91704000000000   -0.18549000000000    0.30255000000000
C         2.98934000000000   -0.33273000000000    1.84665000000000
C         2.22388000000000   -1.60245000000000    2.32776000000000
N         2.18850000000000   -1.68255000000000    3.80576000000000
C         1.77150000000000   -3.00412000000000    4.25242000000000
C         3.48667000000000   -1.23970000000000    4.39441000000000
C         4.64518000000000   -1.29920000000000    3.36033000000000
O         4.40224000000000   -0.50073000000000    2.16693000000000
C         3.34141000000000    0.20196000000000    4.75846000000000
C         2.90374000000000    1.15752000000000    3.88955000000000
O         3.15055000000000    2.36945000000000    4.44551000000000
N         3.75407000000000    2.13313000000000    5.69321000000000
N         3.87391000000000    0.81384000000000    5.85168000000000
C         2.40131000000000    1.01419000000000    2.50180000000000
N         0.92788000000000    1.09243000000000    2.51578000000000
H         3.54506000000000   -1.09368000000000   -1.55174000000000
H         3.07497000000000   -2.26538000000000   -0.32077000000000
H         4.63518000000000   -1.42833000000000   -0.20026000000000
H         1.87320000000000   -0.09713000000000   -0.01865000000000
H         3.42199000000000    0.74484000000000    0.01424000000000
H         2.72400000000000   -2.49639000000000    1.93175000000000
H         1.19978000000000   -1.61052000000000    1.93766000000000
H         0.80573000000000   -3.26662000000000    3.80435000000000
H         1.62319000000000   -3.01384000000000    5.33673000000000
H         2.49628000000000   -3.78069000000000    3.98730000000000
H         3.73777000000000   -1.81615000000000    5.29269000000000
H         4.82598000000000   -2.33188000000000    3.04166000000000
H         5.57712000000000   -0.92761000000000    3.80127000000000
H         2.77453000000000    1.86895000000000    1.93089000000000
H         0.58516000000000    0.40491000000000    3.19661000000000
H         0.54529000000000    0.80720000000000    1.61814000000000
