32
 energy: -49.314606453166 gnorm: 0.150488551925 xtb: 6.4.1 (79825abcba525fcdf90b791dcacef51065a7a4e7)
C         3.70948768974507   -1.47555251050684   -0.32945074486114
C         3.07360855233676   -0.26446979384999    0.34230700038667
C         2.96967027515074   -0.38878597146410    1.88661719116394
C         2.15382456653524   -1.59596859258921    2.44041364705150
N         2.28449810829656   -1.81453651620412    3.89894173460399
C         2.26985515730557   -3.23319420230948    4.22626014606223
C         3.49112209269325   -1.12646524547221    4.44528109803651
C         4.71276469472218   -1.27149202220475    3.49577405534439
O         4.35878774633450   -0.48939661067036    2.31942173018466
C         3.21284977209264    0.32897463890365    4.63574246404189
C         2.85670677252959    1.28315042962929    3.72889898831599
O         2.78498908296015    2.42410587418269    4.45818505647552
N         3.31831889992936    2.19108161922863    5.73806700516095
N         3.46206311628174    0.87026645546594    5.85966204736898
C         2.44084233188454    1.06721682889518    2.32203768495798
N         0.98529396143259    1.26958165672497    2.18884523594213
H         2.95870292805087   -2.27327923810732   -0.35031013996096
H         4.60938975445476   -1.78882079328675    0.20517973719900
H         3.87918024639991   -1.22296897487046   -1.38025716052931
H         2.05019074914827   -0.18689689110819   -0.04132994289802
H         3.68862745379609    0.61642474529096    0.12007376019868
H         2.60023000150526   -2.48198927521322    1.96949733869042
H         1.07574932992724   -1.58331166052469    2.24390029640201
H         2.50331334841194   -3.29637512450423    5.29578812868347
H         2.87370250737142   -3.76815298026088    3.48666161502802
H         1.24674803236723   -3.61716955095382    4.15939937040508
H         3.67529295115611   -1.54339920925242    5.44252724875033
H         4.90775250585907   -2.28144582796365    3.11809663979424
H         5.59105795743997   -0.82951276341628    3.97979330373531
H         3.02301324338125    1.78941090059994    1.74293601001296
H         0.42905555364858    0.77669516516544    2.89689322864355
H         0.60443263994398    1.10099675247536    1.26147659546550
