32
 energy: -49.308682503177 gnorm: 0.143988149401 xtb: 6.4.1 (79825abcba525fcdf90b791dcacef51065a7a4e7)
C         3.55273863539934   -1.49522112911767   -0.33708728622738
C         2.83983625764215   -0.33495615032091    0.34692841080054
C         3.14275923900014   -0.34416006396598    1.86985473936415
C         2.32682272692119   -1.55292981468386    2.42004372968770
N         2.41128421942828   -1.61607643330706    3.89687495297605
C         1.99636384419519   -2.85908065836558    4.53147952727304
C         3.77295873693805   -1.17212966667340    4.31714154168909
C         4.90144729215343   -1.33366207281293    3.26100334791755
O         4.56794553575645   -0.59561505915144    2.05069723770756
C         3.41676856481520    0.24220370355852    4.64087900978294
C         2.89103649447887    1.18526594305344    3.80787615310241
O         2.48636622658050    2.22341261240240    4.58071144502042
N         2.79830573862315    1.92566961067757    5.91894970686579
N         3.31517549842074    0.69569234747615    5.92037506751751
C         2.62538424766283    1.10138415742081    2.35143459866568
N         1.18667218017250    1.34180530082130    2.12868345730750
H         3.18453439288890   -2.43539247007221    0.08833519814900
H         4.63570130446230   -1.54287938310552   -0.20029896906456
H         3.44328908636742   -1.41448506957976   -1.42257824161279
H         1.75228087553032   -0.31809949410738    0.21457281709585
H         3.28777681711970    0.56403434976582   -0.09440636831531
H         2.76339731065449   -2.41868978145256    1.90435492165844
H         1.32085383478385   -1.35367990506782    2.03358547579972
H         2.09063178515596   -2.88097517800159    5.62373354721508
H         2.64712704039734   -3.64493348377452    4.13554884734137
H         0.92504508959595   -2.93960514073956    4.32065364006869
H         4.13952497275160   -1.67271297913883    5.22118703801921
H         5.05109318587565   -2.39352858882007    3.02657588031444
H         5.80376688494752   -0.87303993814573    3.67893390832057
H         3.08865492120136    1.86663669852030    1.72245541372022
H         0.48223044766417    0.79351534653757    2.63544788682675
H         0.91682672023696    1.55427739042634    1.17185126184274
