32
 energy: -49.317715664478 gnorm: 0.144826486955 xtb: 6.4.1 (79825abcba525fcdf90b791dcacef51065a7a4e7)
C         3.69233239890075   -1.48456678203980   -0.36716593573937
C         3.00230071311670   -0.29407900672614    0.28775178159800
C         3.01126026528042   -0.42277213376369    1.83517203342607
C         2.30123720947607   -1.65361776315492    2.47585206381569
N         2.38384552523537   -1.66036583962724    3.95412200501693
C         1.94616713726137   -2.96927524836409    4.41794866225822
C         3.71026656592750   -1.15003995491864    4.41024142226165
C         4.78244531691938   -1.24045961690970    3.28896356399966
O         4.43438316232209   -0.39792956513297    2.15328158800248
C         3.47174117857766    0.29529518942439    4.70371752537973
C         2.86504515896883    1.13908707721264    3.82077384816676
O         2.45761198688750    2.23079973896537    4.51427409932222
N         2.95074543826098    2.10163177887540    5.82460758243486
N         3.51912448992079    0.89861514424157    5.92307928597346
C         2.55985390581991    1.02459673689212    2.37419874674192
N         1.11962364315602    1.29399236692524    2.19962612533892
H         2.96304288813202   -2.28581353052193   -0.53032616482128
H         4.61576479713525   -1.86503305486014    0.07590123027715
H         3.93281684551434   -1.16928115237604   -1.38674934647136
H         1.97119875137086   -0.25243430598904   -0.08058680881731
H         3.42158815316350    0.66959468446701   -0.02711661346724
H         2.58576612215381   -2.62317654853518    2.04565248331272
H         1.23890640535518   -1.56240396827926    2.22255930406390
H         2.29459352306247   -3.18973327438005    5.43401065362881
H         2.35403750520129   -3.76635938185862    3.78857028050605
H         0.85191415259679   -2.98723885928245    4.38723493044868
H         4.07166531393200   -1.64275358400577    5.32066820929417
H         4.95868462214263   -2.22546377048754    2.84245075524652
H         5.71958888633926   -0.82867416724313    3.68038919772087
H         3.22648079963655    1.67066067858050    1.79622300866697
H         0.61207458643928    0.67192848815938    2.83923593651089
H         0.81748956429252    1.03029840783199    1.26545841547267
