32
 energy: -49.319951286891 gnorm: 0.144721127911 xtb: 6.4.1 (79825abcba525fcdf90b791dcacef51065a7a4e7)
C         3.51559020711309   -1.38609735684633   -0.48778580919600
C         2.79849052610458   -0.29705907010629    0.30093831662330
C         2.99125693749702   -0.37157144552467    1.83991221384783
C         2.13103076200846   -1.52046432545443    2.44789305535070
N         2.22715401603789   -1.62834862136570    3.92141706433075
C         2.02406707985467   -3.03318998635193    4.24563587041187
C         3.58622800619628   -1.20845258139800    4.37360667006071
C         4.60259908621482   -1.43833205383817    3.22071799943664
O         4.41845655072276   -0.55167241962605    2.08023392526970
C         3.41042953364308    0.22863101087346    4.74225544809858
C         2.95481526093981    1.20356294053472    3.90465307240204
O         2.95930482521389    2.38956555138293    4.56204076821378
N         3.37673694903951    2.10595297110966    5.87434908944941
N         3.68398991760910    0.80944476253811    5.94263179158788
C         2.60441998681332    1.05704236085663    2.47127100006518
N         1.17203604703500    1.39870973899959    2.37718338666210
H         3.46913868619289   -1.34305686534328   -1.58161878276240
H         3.02439847538664   -2.30604123346342   -0.16186489325011
H         4.54309858572063   -1.32370803279649   -0.11748561558844
H         1.71563303360394   -0.31875999962643    0.13502394540886
H         3.11290174146885    0.69974603999714   -0.03243266387180
H         2.54210538828105   -2.44527779404386    2.02150082409653
H         1.08565944591084   -1.55750027901285    2.12101224404186
H         1.16282710863560   -3.50635551496487    3.75905108197903
H         1.83621405564692   -3.02133217963386    5.32377739187830
H         2.91348686750511   -3.64228295684069    4.05434076589848
H         3.83694504329175   -1.83631683564261    5.23684485466402
H         4.54102074807734   -2.49965599495491    2.95526222444384
H         5.61595764580545   -1.21773327244380    3.57492127600329
H         3.15646239594533    1.86243588275478    1.97889263708560
H         0.62007642925815    0.72900453212017    2.92536742680767
H         0.98596664649417    1.19949834816115    1.39780510253888
