32
 energy: -49.313132704295 gnorm: 0.153467895719 xtb: 6.4.1 (79825abcba525fcdf90b791dcacef51065a7a4e7)
C         3.64244523248978   -1.52090829322667   -0.38964571596496
C         3.02393858874843   -0.30742182573465    0.29389082853369
C         3.07818529403084   -0.31881696107811    1.84568948440863
C         2.27628019633261   -1.52990052025847    2.41120645080274
N         2.40409890547698   -1.75591806787811    3.86885185853246
C         2.14046521562317   -3.12312358720621    4.29451337572941
C         3.64070252785544   -1.17881902447364    4.47353225986505
C         4.73473657942508   -1.35216171015329    3.38355572824824
O         4.45624468809290   -0.40161957549692    2.31599326154290
C         3.41847813143686    0.28270313115281    4.68936915950582
C         2.90153409505170    1.19192103347558    3.81430000171099
O         2.61534914957155    2.37579416779513    4.41039019120281
N         2.93501473558351    2.16646285311766    5.76347301155770
N         3.48374320987057    0.95514161501795    5.87116872470284
C         2.46481831414875    1.06031057765163    2.40334737848650
N         1.01978060212940    1.33962015842891    2.29768289947662
H         3.02832684097459   -2.42165427970368   -0.28011913971700
H         4.54921797572691   -1.81256266601802    0.14560321010860
H         3.94318182079279   -1.47228232210518   -1.44035078587099
H         1.96618525877128   -0.22453974027948    0.02027192040986
H         3.44613171052194    0.59050334907708   -0.17418436883604
H         2.55864876593796   -2.46492876173604    1.90914788334581
H         1.18622580977275   -1.48690216190987    2.30653320386293
H         1.98095147267050   -3.01080721399061    5.37355232766896
H         2.98864750120502   -3.78544325639841    4.09516953482980
H         1.20463582969043   -3.41417063328641    3.80648612491872
H         3.89669879080339   -1.74617532637534    5.37620908543843
H         4.61912620507525   -2.31838738228856    2.87986002573041
H         5.75801564492541   -1.12412521515919    3.70280274980089
H         3.03780933734414    1.84332606426333    1.89895265414923
H         0.58519187122225    0.63155331454614    2.90054624025521
H         0.68917839360915    1.16664608050596    1.35202388857392
