32
 energy: -49.314222487013 gnorm: 0.146184623412 xtb: 6.4.1 (79825abcba525fcdf90b791dcacef51065a7a4e7)
C         3.53102530178337   -1.34662006196579   -0.52784234111166
C         2.88238782381069   -0.21081512191758    0.25416702078526
C         2.99289999302000   -0.33751413577004    1.79782697086936
C         2.41276432544057   -1.69213181198570    2.30580154305703
N         2.24726328680725   -1.68772347452722    3.77710765113333
C         1.61086976220826   -2.87381915739517    4.33219474879262
C         3.56156926653769   -1.27137399677462    4.34905442594006
C         4.71331232672075   -1.19217868739791    3.30875491941388
O         4.40701454905257   -0.35934621570419    2.15404740319216
C         3.42165360719199    0.15847392546293    4.75890171245976
C         2.93898990979929    1.09222251241364    3.89010732297531
O         3.00568864598869    2.31305337771262    4.47654078463406
N         3.58492438492121    2.07933654734174    5.73618406920730
N         4.00574459283056    0.81481867788201    5.79867694687887
C         2.39912278710925    0.97540138539681    2.51398029881566
N         0.93126777964775    1.06276580976147    2.63678885130380
H         3.74671300434501   -1.02669941922694   -1.55332291092506
H         2.84596783503133   -2.19757382090006   -0.50875148343257
H         4.46747436255758   -1.53945027859668    0.00382277235850
H         1.80677432566475   -0.16131626360537    0.05122781507788
H         3.33211993238781    0.77181188232624    0.06496805416785
H         3.06247813231697   -2.47310272380099    1.88863367779208
H         1.39906499431601   -1.88624618948818    1.93734912066800
H         0.83740654882591   -3.30453618392128    3.68518458219564
H         1.23701752172646   -2.62069207034976    5.32918004475700
H         2.29933259733783   -3.70434214452576    4.51902651074773
H         3.80454770584608   -1.91617428120182    5.20195933688748
H         5.04188001140956   -2.19881519160461    3.02698659215470
H         5.48717863009404   -0.56516292686923    3.76592177921349
H         2.87250531357027    1.82883030879555    2.02061020647584
H         0.62840720084382    0.34407679362075    3.30419561712484
H         0.53366397699070    0.91457261206280    1.71297133244425
