32
 energy: -49.310840488900 gnorm: 0.144775288996 xtb: 6.4.1 (79825abcba525fcdf90b791dcacef51065a7a4e7)
C         3.76575160079271   -1.27274435250637   -0.29083937694897
C         2.94864742044239   -0.14886897798940    0.33491375891695
C         2.90698150348293   -0.25979741286072    1.88317422107269
C         2.29060023721000   -1.63263275363963    2.28935383016877
N         2.14567402899556   -1.76125984645993    3.75721048301392
C         1.82356637661711   -3.12313294140874    4.15906830604736
C         3.36367904305963   -1.21746419571950    4.42700169821798
C         4.51974039070337   -1.31744036996723    3.39330253237879
O         4.28409882347286   -0.31891135449705    2.35976948449510
C         3.30702414310859    0.23943070191774    4.75298288603459
C         2.85902043517062    1.15867121273151    3.85079448523491
O         3.28151761513238    2.36888052435395    4.29314104859971
N         4.02885551804524    2.17830172143693    5.46872795655637
N         4.08622446143921    0.86211794975464    5.67936871387450
C         2.24153829383860    1.06637145566458    2.50579417523131
N         0.77642167148329    0.98321043414513    2.66016496042469
H         3.88693182708834   -1.13937561703438   -1.37158399778957
H         3.24328750287261   -2.20691949266590   -0.07143434242295
H         4.68698359043284   -1.40135935427206    0.28498866145940
H         1.90729987927074   -0.32521588453185    0.04323598500116
H         3.18536351002323    0.90018848559433    0.11799216759780
H         2.96789466135098   -2.42384478723162    1.94103155442084
H         1.27093624781922   -1.69921609204711    1.89327817788747
H         0.80212350197089   -3.28308735465255    3.79375515350797
H         1.89404238861405   -3.09506377803293    5.25088502877269
H         2.43903059340996   -3.97291733859570    3.84645690316310
H         3.55235043161618   -1.77406851479236    5.35266224598830
H         4.50711323178492   -2.33540439495214    2.98801625363436
H         5.46898288105357   -1.08346813564783    3.88849445663445
H         2.52539480088129    2.00060681523586    2.01337589453274
H         0.49831722764862    0.05833558424641    3.00792156075464
H         0.33179847387230    1.11210873831091    1.75507697818961
