32
 energy: -49.310779831482 gnorm: 0.153560353493 xtb: 6.4.1 (79825abcba525fcdf90b791dcacef51065a7a4e7)
C         3.46463470939894   -1.64771739087127   -0.25896103428612
C         3.01997277248382   -0.30223621213767    0.30164422238922
C         3.00728076966404   -0.31712846550783    1.85430927924062
C         2.28336548596644   -1.57207198581473    2.42932932533164
N         2.32791005497678   -1.71085395938297    3.90272915307094
C         2.13175265027719   -3.11786070449717    4.22178351799246
C         3.63362550200196   -1.18025272345076    4.39409432403351
C         4.77406203116928   -1.14635823489652    3.33898166191372
O         4.43013384242438   -0.34380856343700    2.17347527758967
C         3.28700873719894    0.22437175361561    4.76679150449291
C         2.76951729285244    1.12305032734538    3.88122174128864
O         2.64836118999143    2.31431032777074    4.51761922199749
N         3.11820976887028    2.11998873568371    5.82846636680989
N         3.60926575722458    0.88243429085950    5.91404360292211
C         2.44436946100898    1.07383280293666    2.43530133569111
N         1.02647404967581    1.36140872689509    2.14515394736084
H         2.65662005095121   -2.37354121665137   -0.40308906513763
H         4.26803887162515   -2.09125971229033    0.33399972068840
H         3.87145062289823   -1.47563649320784   -1.25979923639850
H         2.05395091485611   -0.03911866407084   -0.14349596063094
H         3.76276377358823    0.41217446406523   -0.07450729596320
H         2.80610065317883   -2.43225556479310    1.99012004747929
H         1.23072608803587   -1.54123154728881    2.12597625424887
H         1.61752259820063   -3.06788625655908    5.18897257482777
H         3.10636862281058   -3.60892442008707    4.30423737502740
H         1.53662702652906   -3.64709354390687    3.47052210213933
H         3.96471176891792   -1.82661501763532    5.21558710557539
H         5.08727620252846   -2.19320717039770    3.25730326945283
H         5.57834102403869   -0.61166576022757    3.85691854745298
H         3.05147658122898    1.88867380936737    2.03119605090031
H         0.67171496170335    0.49706177482702    2.57026636549227
H         0.82854357126575    1.45714281736620    1.15260806689277
