32
 energy: -49.316389363018 gnorm: 0.150169612040 xtb: 6.4.1 (79825abcba525fcdf90b791dcacef51065a7a4e7)
C         3.79395326612921   -1.48289027685394   -0.39398739541564
C         3.04457608137058   -0.35019379666933    0.29721055491320
C         3.09997621708741   -0.30732582653881    1.84841808542517
C         2.36264576236782   -1.56208669871568    2.40654316408951
N         2.30361224557287   -1.54988059817206    3.88590713873257
C         1.74505252043123   -2.83172338321637    4.29190159839496
C         3.63738952653997   -1.14807960681209    4.42206417241240
C         4.76899055932221   -1.31497226646764    3.37009792142825
O         4.48453386604052   -0.36561737198357    2.30305181951351
C         3.43833184825674    0.31924428415352    4.62043992973422
C         2.80898603143805    1.18757712704053    3.77807640599494
O         2.72867500995500    2.33440056395679    4.49719189351103
N         3.23737611007331    2.12512682165943    5.79112639512489
N         3.73424524720362    0.88730939454018    5.82161459039920
C         2.32722866812657    0.99655503857851    2.38874213829822
N         0.85249389329504    0.95307660987525    2.41282104623589
H         3.27458789046074   -2.44457942473429   -0.47076233634997
H         4.67397019264493   -1.78050420746377    0.18115315402065
H         4.07103554695138   -1.17042104261581   -1.40511375500714
H         1.99897129848622   -0.42706882677819   -0.02119127272494
H         3.44170393144625    0.62035835867828   -0.02516971154153
H         2.89432466506777   -2.43996348494488    2.01574586334565
H         1.39386743981287   -1.53168672876586    1.89510565154168
H         1.80082651487062   -3.00738258254854    5.37283534643125
H         2.31709438030375   -3.67231893392501    3.88695007702778
H         0.71448558085660   -2.98211443802364    3.95430726425897
H         3.91425938160955   -1.72847732098386    5.31017131727299
H         4.93718127075177   -2.31373453914100    2.95194367280650
H         5.77627932220241   -1.03641701564743    3.69993981726870
H         2.63150608266198    1.85120483367362    1.77813999120724
H         0.54806718526858    0.27005445568727    3.11601045219343
H         0.36943194356361    0.87123439347290    1.52206753524441
