32
 energy: -49.311842863118 gnorm: 0.155384880398 xtb: 6.4.1 (79825abcba525fcdf90b791dcacef51065a7a4e7)
C         3.74891295675789   -1.43680478417995   -0.36460574433525
C         2.92235111632625   -0.37085428114214    0.34452551422211
C         2.95572008254243   -0.35665795707320    1.89689036329063
C         2.20367646209150   -1.61076169860284    2.43655585012057
N         2.30907130122936   -1.78543048914828    3.90302591322516
C         2.06185992360224   -3.20419949931230    4.11732108382181
C         3.53092423596832   -1.18800105792834    4.51786223432648
C         4.66863485307875   -1.22812594485101    3.46002878783854
O         4.35971093247342   -0.42378793034544    2.28598275781701
C         3.33471531706815    0.28056245064669    4.70979860688300
C         2.83585784288852    1.21116616588273    3.84679667491189
O         2.78592181944390    2.43732714658157    4.42369925602081
N         3.32746587174055    2.27216761814875    5.71066902110853
N         3.66467312925207    0.98648026558391    5.82599355200577
C         2.42460125301040    1.06579478047348    2.42955834253114
N         0.96536206150696    1.23312377187978    2.28836758622000
H         3.33528562049223   -2.45063980286944   -0.32546771980799
H         4.69691744468055   -1.49038910813102    0.17595572983546
H         3.98147718291071   -1.12241013377770   -1.38629944290234
H         1.89510335017755   -0.41277061447184   -0.03439915519744
H         3.47774229819662    0.52778132727845    0.04854285693381
H         2.56387876823982   -2.48105887552668    1.87183489512456
H         1.12909318728875   -1.43362953310849    2.31441287891491
H         1.75693372093175   -3.30233577548504    5.16602215835088
H         2.90354323857377   -3.89898401174211    4.03569890332006
H         1.28282896844056   -3.44706527875910    3.38740149511718
H         3.89155987504948   -1.76349448003729    5.37867695137093
H         4.82169680617131   -2.29631745025566    3.26974972908828
H         5.62609532558353   -0.80113859659748    3.77935715350189
H         2.79273552560571    1.85492400165681    1.76804626194374
H         0.61555370402200    0.48103233516259    2.89306818659735
H         0.79179387355391    0.95057611088493    1.32736304543279
