32
 energy: -49.316428936807 gnorm: 0.149450586251 xtb: 6.4.1 (79825abcba525fcdf90b791dcacef51065a7a4e7)
C         3.85668552007248   -1.32381244948430   -0.39635483807654
C         3.09263212812149   -0.21770765778923    0.32133360141807
C         3.04111434396614   -0.37673197286844    1.86509810102853
C         2.34870634690677   -1.70998550010890    2.28053862548570
N         2.28421207940498   -1.72573209000292    3.75964113462887
C         1.81484206661165   -2.99289369408863    4.30179852732850
C         3.52033812044956   -1.15398757360447    4.37035450983823
C         4.70016676613634   -1.18069740847774    3.35926698113621
O         4.43958904169906   -0.25929576095863    2.26204505155411
C         3.32064269502615    0.27675274209533    4.75130091748150
C         2.81675660204311    1.14199728518072    3.82550122468716
O         2.83270709883957    2.39278662110784    4.34900151805645
N         3.50234961082557    2.31152004396566    5.58261955148778
N         3.75605243715726    1.02069446659978    5.80489112420423
C         2.25455360686740    0.88645369282494    2.47737119910864
N         0.78642641140435    0.75555499202820    2.54651520702815
H         3.20652888861043   -2.17475596351156   -0.62802765444954
H         4.72206965165257   -1.56107956183603    0.22702716254616
H         4.27058439209086   -1.04621128679887   -1.37022004747826
H         2.02602407770063   -0.12073011771717    0.08998649292932
H         3.52939418689663    0.75286230264309    0.05516841766901
H         2.94149381459781   -2.54873977078437    1.89173671999953
H         1.33124030495242   -1.73265917205523    1.87400120230419
H         1.82014903240956   -2.90971976864803    5.39515967204715
H         2.22247066593546   -3.91714751877376    3.88059514417367
H         0.74201939271568   -3.02639069978204    4.08596275506150
H         3.75317589157055   -1.74274261243969    5.26556777954609
H         4.99958976144092   -2.21075032844964    3.13565119831552
H         5.48999577522788   -0.75433716798161    3.98808049943796
H         2.50978761344597    1.72293212519445    1.82086115744821
H         0.48903348263891    0.24347544144094    3.38496747443197
H         0.54553896332740    0.10361511153253    1.80460116098710
