32
 energy: -49.318859524609 gnorm: 0.151818217190 xtb: 6.4.1 (79825abcba525fcdf90b791dcacef51065a7a4e7)
C         3.40472115984557   -1.50866692641101   -0.53810548490854
C         3.27898040747854   -0.25422175227938    0.31797783403386
C         3.20663482219073   -0.38200788971732    1.86380720591841
C         2.59246313920871   -1.74373497313430    2.30886576079278
N         2.36211404221233   -1.67588718985141    3.76985435489709
C         2.00123042855187   -2.98215253034906    4.30218438888155
C         3.53345392897177   -1.08634464498440    4.48278680331056
C         4.75932442410172   -1.12928540723408    3.52863552430685
O         4.51067333493128   -0.15422207716197    2.47592385949836
C         3.25925607915240    0.36076231669634    4.73321294940152
C         2.76967454361599    1.18343885997144    3.76204479354984
O         2.62513891465924    2.39395886808777    4.35578858299498
N         3.16206086896302    2.27779569926427    5.65002957063304
N         3.46967040089470    1.00648401641374    5.91298095684361
C         2.33918654939703    0.87206364450892    2.37764787129165
N         0.86468866585440    0.81577782542182    2.37680375530832
H         2.57471927082002   -2.14903739466268   -0.21950961184016
H         4.33434494320111   -2.02597414275578   -0.28914091218353
H         3.42743008397450   -1.26752633118950   -1.60493426415084
H         2.38261511661879    0.28400016625529   -0.00978013549449
H         4.14817279296356    0.41280968820407    0.26154463432141
H         3.25568276883249   -2.58124898673640    2.05434144114328
H         1.65712708222575   -1.86151417989047    1.75002908042389
H         1.06751342577578   -3.33062636828755    3.84488448416198
H         2.01236062068585   -3.02019356046610    5.39591538910981
H         2.75617572806268   -3.74272886284474    4.07804858971738
H         3.70868896971201   -1.66985294646339    5.39441362290136
H         4.90159210377717   -2.16164073784214    3.19000659999093
H         5.62308669219616   -0.71228284680851    4.05877038018908
H         2.61811150535667    1.70874717235364    1.73111284670026
H         0.63460256323108   -0.00511812762520    2.94852085921240
H         0.55387121661953    0.61593388208628    1.42973262295025
