32
 energy: -49.305705935628 gnorm: 0.142400895948 xtb: 6.4.1 (79825abcba525fcdf90b791dcacef51065a7a4e7)
C         3.13695423246218   -1.52700231389898   -0.57370897088054
C         2.94409353748544   -0.26330808553911    0.25587148297023
C         3.14529254318888   -0.32074450082876    1.79449802820644
C         2.34175837246828   -1.53379089827821    2.35345769184055
N         2.32549416073600   -1.65043903668715    3.82935754918944
C         1.94450157728506   -2.94605017735337    4.37357975763991
C         3.66593597789605   -1.22095506943000    4.32597559502907
C         4.83105027290357   -1.22453159809890    3.29762598287684
O         4.55672596152562   -0.35776892898922    2.15997649793267
C         3.44900274587746    0.19290615521008    4.75719792789513
C         3.02534645511911    1.14690311055635    3.87966755992321
O         2.87120194915520    2.32600445465549    4.53138869328243
N         3.29614742635501    2.09350213719900    5.85131400161336
N         3.55579613514772    0.79075088794563    5.97550007163241
C         2.53459694795067    0.99629315989330    2.48851304892907
N         1.06388147173131    1.10041701475572    2.54739460861585
H         3.29923008632207   -1.35683727915590   -1.64384504087613
H         2.24975056091836   -2.15995450368103   -0.49604518125252
H         4.03409151984377   -2.02746604287954   -0.19758549377620
H         1.92901722669836    0.14915049309406    0.24710434387198
H         3.53926662981282    0.53494777875330   -0.20474507177877
H         2.77402225618723   -2.47513917476397    1.98865090780964
H         1.30533842846426   -1.35505780957313    2.04537960823982
H         1.51466271848048   -3.58108198975803    3.58976995103906
H         1.12296320415646   -2.85911752145787    5.09144876929233
H         2.88419001560938   -3.32353886930016    4.78968496998339
H         3.88302292151538   -1.90334614917668    5.15631793095523
H         4.95079032126765   -2.25356966498089    2.94068040304934
H         5.79703584031396   -0.87336553058635    3.67785437240908
H         2.98213883159995    1.88194393950073    2.02897527550673
H         0.63407107346052    0.18263683274777    2.71052886109633
H         0.62721202930933    1.40491863817280    1.68131876009951
