32
 energy: -49.319912154279 gnorm: 0.134702952887 xtb: 6.4.1 (79825abcba525fcdf90b791dcacef51065a7a4e7)
C         3.74017261567221   -1.31084390770752   -0.57092749251941
C         3.04694624604766   -0.23118863016890    0.25132780019166
C         3.13629916146604   -0.35576298115066    1.79652970282671
C         2.45180624670805   -1.66833147716979    2.28460553624474
N         2.27903010438164   -1.64957821189209    3.75496209857131
C         1.74751629955649   -2.89891370565634    4.28088536703801
C         3.50307006265901   -1.14792068366317    4.44629134543496
C         4.69852062131645   -1.28117874701606    3.46234658708126
O         4.51619850843564   -0.50236329133703    2.24539020634999
C         3.28201332022951    0.29723689186944    4.75397589918306
C         2.86478221627010    1.19490502185232    3.81601826746405
O         2.86765158788725    2.42952957916601    4.37679889230362
N         3.33847980793193    2.27643731290470    5.69274811211060
N         3.54412926318779    0.97538932835832    5.90483982257701
C         2.40305120128779    0.92763874808069    2.43247119128952
N         0.94248165665625    0.84617557158346    2.62589609688962
H         3.32910565767356   -2.31951781177796   -0.45226110208380
H         4.80180403692605   -1.36153812984121   -0.31763060095371
H         3.73924893921594   -1.03691835624326   -1.63005546708369
H         1.97357569445052   -0.07907946481342    0.09221363273239
H         3.52890882693568    0.70673075399982   -0.05137724950095
H         3.06764291213544   -2.51649581948487    1.95683262668706
H         1.47464052925048   -1.92943659725307    1.86271077298764
H         1.31958239828909   -2.84561923026472    5.28906041767983
H         2.44721879616888   -3.72653858730015    4.43343690546013
H         0.89071334319480   -3.21304474691856    3.67601678431976
H         3.63794181119848   -1.72004350963386    5.37189266553180
H         4.94796501382140   -2.33441707249813    3.29166064577135
H         5.57215524470921   -0.85898142743556    3.97178875483981
H         2.52874801304035    1.82630354887546    1.82218611145813
H         0.79034302266654    0.12022895385359    3.33549145570409
H         0.56738976655682    0.35952602141551    1.81597813069828
