32
 energy: -49.312236350868 gnorm: 0.148325383878 xtb: 6.4.1 (79825abcba525fcdf90b791dcacef51065a7a4e7)
C         3.72854564527935   -1.52276612979859   -0.29453012399728
C         3.01197024541019   -0.33470284119390    0.33582485987044
C         3.00543609973303   -0.35334211840356    1.88848757656863
C         2.24289160316750   -1.61802976243443    2.38716147848215
N         2.40579396627630   -1.78383158255058    3.84939410973774
C         2.15576508955526   -3.11551457098095    4.38235504597724
C         3.67035672881735   -1.16200549838316    4.34141398300650
C         4.89454294209223   -1.17319794839950    3.38420456212194
O         4.42298210142108   -0.43293091716653    2.22213193280238
C         3.29502669320125    0.26086054819814    4.59947570809970
C         2.77449314100703    1.22072762951957    3.78255810276919
O         2.64254519324176    2.37769280210969    4.47739783434380
N         3.17118577141013    2.11316194129377    5.75309425790321
N         3.56583693005384    0.83961925427068    5.80146715745212
C         2.32660329596010    1.01903028995841    2.38343618213631
N         0.87757562712390    1.27483473473840    2.27300206609965
H         3.29335158335622   -2.52131201238267   -0.17623790082153
H         4.70738834133254   -1.55506011276384    0.18984015898635
H         3.73768061358957   -1.34154881631930   -1.37335585881117
H         1.99365499053267   -0.30508731323323   -0.06758041619800
H         3.42598779862564    0.63110501019504    0.02052229505068
H         2.62271914295431   -2.53842075897612    1.92382134554795
H         1.17137278950226   -1.57259724973670    2.16175688738356
H         2.70973069429201   -3.23467632026517    5.32113470339177
H         2.34668090648912   -3.94655821074314    3.69625292590932
H         1.09568497573059   -3.15718553873083    4.65281632247147
H         3.90643468095285   -1.65445826655913    5.29220848887204
H         5.13505667407181   -2.21425358755588    3.14125710726931
H         5.74436967337096   -0.56648782205496    3.71694575370378
H         2.76609051586739    1.83676042092820    1.80549638367004
H         0.40846001557068    0.52457356331585    2.79329903766867
H         0.42377295835317    1.54679261132010    1.40490595652002
