32
 energy: -49.318535677429 gnorm: 0.144905178652 xtb: 6.4.1 (79825abcba525fcdf90b791dcacef51065a7a4e7)
C         4.07359222828758   -1.09735191802357   -0.36532319925930
C         2.89815343521265   -0.40468342199803    0.31355535241655
C         2.95513581029562   -0.46586208631430    1.86409132972428
C         2.16461524852134   -1.63871178830725    2.51913746940679
N         2.31087100325342   -1.75567087839804    3.98783809290155
C         2.07068508674975   -3.13243921990405    4.39620195704926
C         3.58721988480678   -1.16585375017598    4.48875675960591
C         4.73325718903626   -1.21147891473097    3.44017491311903
O         4.35362893801543   -0.42349831379644    2.27580956225451
C         3.30054268921052    0.28600453308355    4.69354934339091
C         2.67510691408254    1.09053829833479    3.78734302384613
O         2.66433845900556    2.32472332237330    4.34899443569359
N         3.32342102535422    2.28216125855505    5.59021860741120
N         3.65312176744532    1.00553991885220    5.79402201154727
C         2.31517352212895    0.92530090842974    2.35836651617975
N         0.85707497397199    1.07462071054762    2.18817530985622
H         4.00081757156728   -2.17626894478891   -0.54173946985907
H         4.97616843260860   -0.96728316463452    0.23653127647600
H         4.38452372196774   -0.69150599799862   -1.33248338367365
H         2.03074130879269   -0.93742552488120   -0.09185913858223
H         3.01335862724503    0.62211235042277   -0.05526608735112
H         2.46527803922386   -2.53775485947830    1.96470435940026
H         1.09922906802080   -1.49062611193896    2.30926408523491
H         1.06423979550915   -3.39138160887370    4.04634287748512
H         2.07760896606958   -3.33247873212263    5.47219208418089
H         2.82960480029274   -3.76701962701445    3.92715590758392
H         3.89958737188706   -1.62126839958229    5.43600370313582
H         4.96240861813962   -2.22989618228619    3.10703371070175
H         5.66558381865144   -0.74629380139142    3.77986480190484
H         2.77666569963397    1.68577467273324    1.72232357346400
H         0.44237745551253    0.58717779197711    2.99073097591367
H         0.55326985886750    0.63644493051414    1.32261580505630
