32
 energy: -49.315523900208 gnorm: 0.153386707992 xtb: 6.4.1 (79825abcba525fcdf90b791dcacef51065a7a4e7)
C         3.40404981666248   -1.56407207627623   -0.31861703673081
C         2.98423049622705   -0.25017311261998    0.32925899193629
C         2.98172783311935   -0.32844201821967    1.88007147843134
C         2.08931924887014   -1.50685521341450    2.37457515296238
N         2.34890190009474   -1.79003525913826    3.80446242128025
C         2.08134731633625   -3.15162997038335    4.24538845192379
C         3.61013825675697   -1.17880461802419    4.31783378936762
C         4.69541508094629   -1.42815464418603    3.23385694336450
O         4.40448108734883   -0.49573004574302    2.15370904327689
C         3.37433621991046    0.25556626495877    4.66278861170714
C         3.03823944433728    1.27944680508953    3.82710806705968
O         2.85336275274801    2.39980291081441    4.56832580914349
N         3.25635362941687    2.11245731973751    5.88433100193429
N         3.58444326901847    0.81926070871145    5.88393023435696
C         2.57433806615219    1.12908162901836    2.42674556672739
N         1.12273302396806    1.39394510768469    2.42846883422191
H         3.64928810148513   -1.41598000552035   -1.37616501547301
H         2.62434067211300   -2.32930766374008   -0.33469937121795
H         4.31979022770849   -1.84453028716489    0.21010862198359
H         1.93973624394168    0.00620494965106    0.11978128617920
H         3.68341513041186    0.55790549160911    0.08074164669286
H         2.21416057731616   -2.40704117486191    1.75801006932936
H         1.05776256506185   -1.14194456729068    2.31329752776139
H         1.02511973530320   -3.38685477503582    4.06808293528612
H         2.44830127357465   -3.25957533927757    5.27082060070446
H         2.63916081174905   -3.87467906556042    3.64148471155543
H         3.95678960076630   -1.68233872802397    5.22807494566209
H         4.65383294055919   -2.48963646301717    2.96516671689778
H         5.71235705366927   -1.13225955337093    3.51544968011829
H         3.13168267959596    1.87865630797171    1.85810615118094
H         0.75327471693124    0.69940367124364    3.08784958981310
H         0.70575917658275    1.48990253747665    1.50629000176677
