32
 energy: -49.310221420097 gnorm: 0.156938634641 xtb: 6.4.1 (79825abcba525fcdf90b791dcacef51065a7a4e7)
C         3.49560619631554   -1.59998477323412   -0.31084253561573
C         2.94697713867375   -0.33309520864049    0.33438539636348
C         3.07532088264251   -0.33959767750890    1.88184694768338
C         2.24484998964652   -1.51920893258115    2.47211808544058
N         2.38606375947647   -1.73118685257796    3.93063642015176
C         2.16458712634191   -3.10855539672308    4.34746418157936
C         3.69197116444806   -1.16995800679438    4.38615618895420
C         4.84765874227923   -1.20330222298347    3.34775287948816
O         4.50295766033271   -0.42108123723062    2.16873243726206
C         3.39133266744847    0.26642494110379    4.66622191741011
C         2.81092232299127    1.19993982228817    3.85917285973325
O         2.49770432353020    2.31868006006429    4.55852663321067
N         2.95598298842592    2.07024304657960    5.86432084390629
N         3.46067332473879    0.83575581206680    5.90078155896989
C         2.50597896850950    1.06818073691438    2.41401598555393
N         1.11388119644127    1.34328758001811    2.00942627855371
H         2.85502916097245   -2.47756795661220   -0.16945787504249
H         4.48716470113270   -1.79467379304722    0.10472745139302
H         3.56168296784090   -1.56419940458115   -1.40223677995432
H         1.90392325280565   -0.07716206060045    0.11732394039685
H         3.59396451937076    0.49079595202446    0.00846862942152
H         2.61104229922680   -2.32640295787386    1.82372496868265
H         1.19991095096758   -1.42642690391641    2.15507263160353
H         2.07807988693852   -3.16709435020246    5.43901095053613
H         2.96639631925500   -3.84226822354070    4.21867750825233
H         1.30251418043283   -3.34143898267111    3.71402034505862
H         4.02741946739695   -1.73271805901643    5.26537645892045
H         5.01275145686930   -2.22163278706505    2.97840963747884
H         5.70881122085098   -0.72654069475738    3.82955596264378
H         3.20314083101666    1.76672579154644    1.94301051754303
H         0.51867821933536    0.77086673011451    2.61912949411025
H         0.87191315752981    1.41028282710589    1.02431109974071
