32
 energy: -49.310904900539 gnorm: 0.159054303934 xtb: 6.4.1 (79825abcba525fcdf90b791dcacef51065a7a4e7)
C         3.32558055340144   -1.41939544769678   -0.57990906880133
C         3.15014217573518   -0.22213893858416    0.34643876412465
C         3.12638994537506   -0.34520481115801    1.89416039865946
C         2.46042285031241   -1.69235122806918    2.30800696582845
N         2.42243934979303   -1.77151049357690    3.78599301060099
C         1.99257282947324   -3.05994771020587    4.31047912964578
C         3.55342228359438   -1.14338989465626    4.53044738529935
C         4.75737525611224   -1.04281301574605    3.55300757838991
O         4.49345815304198   -0.21394155595450    2.38506170209018
C         3.24511895184008    0.30225130678665    4.74744238791259
C         2.77188308427331    1.18261666181445    3.81972529345160
O         2.78456620571184    2.40970676914636    4.39667410543784
N         3.36007698210915    2.27862804545131    5.67277931861292
N         3.58920650050363    0.98019007927371    5.87663946138558
C         2.35464073301919    0.96792819137000    2.41308143061070
N         0.90651758130778    0.68548986380872    2.39115536528242
H         2.41674853247134   -1.99957577693169   -0.77457787335316
H         4.21537512713644   -2.02458285056837   -0.39068878539439
H         3.48875463588546   -1.09956081837109   -1.61328613227705
H         2.16329615780606    0.16492266772323    0.06913548686479
H         3.93827318144603    0.50238072744747    0.10658084603400
H         3.06480376160514   -2.47523832729283    1.83063485451853
H         1.43240406916806   -1.74197064933059    1.93152428554911
H         2.02305047081246   -3.09172045523122    5.40612791558775
H         2.69851546808256   -3.78414666486124    3.89214987278435
H         1.00420034350287   -3.28885556764923    3.89892519656940
H         3.88335334227654   -1.71078461543029    5.40877615666843
H         5.03930696958605   -2.08600605039372    3.37154140525861
H         5.55878051093624   -0.57353635746834    4.13485669350096
H         2.71051086766319    1.72545021175292    1.70926126619413
H         0.70476418914015   -0.04789965311823    3.08043441684943
H         0.49867795375173    0.48733273654115    1.48127108391590
