32
 energy: -49.315586585094 gnorm: 0.143493332990 xtb: 6.4.1 (79825abcba525fcdf90b791dcacef51065a7a4e7)
C         4.00322327696303   -1.11991783975923   -0.37703638925016
C         2.87581771971647   -0.38994330788515    0.34297470834838
C         2.93824323513752   -0.45031366732085    1.89333276553083
C         2.31251063631853   -1.77615999203856    2.42264822184925
N         2.29521772166934   -1.79168698756933    3.90305747662703
C         2.12640332957305   -3.13312388044131    4.44341860604098
C         3.52680815569849   -1.14745390858630    4.44713371611849
C         4.70828114567996   -1.25477096915108    3.44333509940342
O         4.34374414670472   -0.45419578358722    2.28274479579406
C         3.32972267769519    0.31040290682611    4.70757007029904
C         2.67712556752186    1.13833131190425    3.84252328465492
O         2.71723093198585    2.39335064203101    4.35447931436614
N         3.30338274359615    2.30854702166038    5.62965506802811
N         3.64571388230218    1.03276783261226    5.81726450197738
C         2.29826426857943    0.92716578681133    2.42453085775864
N         0.85717951713728    1.13786637086006    2.18748063168566
H         3.91294272711729   -2.19250151336618   -0.58171781687377
H         4.90547637815570   -0.92396164701273    0.20719901507263
H         4.21585769289845   -0.75066648570141   -1.38462170584605
H         1.95211138280059   -0.84893248399726   -0.02672029208160
H         2.95545506556428    0.63191475652066   -0.04827333910374
H         2.73507533386714   -2.60156482638000    1.83424482230535
H         1.27132463378546   -1.85555269949889    2.09000363290334
H         1.21278799213178   -3.50465608305418    3.96419475524975
H         1.81847383285118   -3.12902472775138    5.49364768784634
H         3.04222737102682   -3.71654439241632    4.30362428915576
H         3.79650341398942   -1.64577953345469    5.38585026514351
H         4.89229065487164   -2.29309804040647    3.14553556601686
H         5.66899454848513   -0.90914775971714    3.84157335180244
H         2.74434119475478    1.71904873181257    1.81643318723883
H         0.35701315865477    0.48273166124028    2.79928317395484
H         0.67030213919359    0.98919796476260    1.19931902183854
