32
 energy: -49.310805653302 gnorm: 0.149937493909 xtb: 6.4.1 (79825abcba525fcdf90b791dcacef51065a7a4e7)
C         3.83830844258947    0.37228578632311   -0.29560710942727
C         3.19040286678540   -0.84365193794501    0.35557328310837
C         3.03850241952063   -0.72613940729395    1.89643949817576
C         2.06420966663117   -1.80365186076757    2.46151043932900
N         2.08921952136841   -1.70145490566550    3.93835910694536
C         1.61022721836592   -2.89474034853721    4.62142397491805
C         3.38372296898442   -1.27998383660935    4.55031758643290
C         4.52111106809359   -1.71841968851180    3.58640402174004
O         4.39934855128392   -0.89035562391826    2.39465677422758
C         3.41906751259716    0.21325807860281    4.58187107620286
C         2.95130774335046    1.06238522263364    3.62278908730183
O         3.20558086605553    2.31267197782263    4.08203753756151
N         3.66778893034294    2.23972998074116    5.40788895113628
N         3.72668759274922    0.93762946303300    5.69260922971883
C         2.48174727214842    0.74073032593958    2.25352637516080
N         1.03457806762422    1.01247456523110    2.15777058039692
H         3.83990659865807    0.17305206019558   -1.37300405241680
H         4.89410499133886    0.46126002533524   -0.02883430997403
H         3.32687008783286    1.32684427042870   -0.14056828737374
H         3.77274715180902   -1.74836775501280    0.14834567852250
H         2.27345251350540   -0.96185235889777   -0.23505498785829
H         2.18275107223343   -2.83239742216524    2.09585605627792
H         1.08520411545144   -1.48838762875205    2.08311842599192
H         0.68775597601210   -3.32824742428348    4.21706883203120
H         1.51291323472537   -2.68841412494527    5.69183416788915
H         2.22116666787934   -3.79850551297059    4.52859545063464
H         3.55789707158475   -1.73479064264045    5.53269575605250
H         4.51904485585826   -2.80355557713221    3.43427578343850
H         5.48922371531774   -1.37664859581325    3.96977039890618
H         2.88629267177883    1.55251875048733    1.64263475700869
H         0.47437769745131    0.65325799282484    2.93931342528499
H         0.68648113096615    0.75659503523965    1.23752984946339
