32
 energy: -49.313798731661 gnorm: 0.148042228812 xtb: 6.4.1 (79825abcba525fcdf90b791dcacef51065a7a4e7)
C         3.61436038234051   -1.51983500671937   -0.37501416779776
C         2.93005379489546   -0.34712364699215    0.31693572189011
C         2.98032258172356   -0.42032659667444    1.86718280172476
C         2.34146330736985   -1.73966171086190    2.39708684850822
N         2.38482483587039   -1.82115451770642    3.87479805056826
C         2.22151580689919   -3.19798044069149    4.31934492718156
C         3.59329523724351   -1.15745737755861    4.44661586632710
C         4.78047978913773   -1.01176861671238    3.45445929217056
O         4.41029679398535   -0.49602813819390    2.14382814173301
C         3.19041222679311    0.24215171334395    4.77947613077899
C         2.75685401647314    1.18607299886061    3.89590708346883
O         2.69001250569194    2.42566466587475    4.44154949115070
N         3.11025492678659    2.24585311383945    5.77117459534511
N         3.43331175283531    0.95896027019057    5.91096567315935
C         2.38882386644309    0.94494721624892    2.47984160410496
N         1.02646483895574    1.39193868743807    2.13128845006538
H         3.19098167253518   -2.50189764616901   -0.13671972214490
H         4.65773291211347   -1.53342302210269   -0.05100857285274
H         3.50751705752677   -1.37725854383713   -1.45438647854421
H         1.87449231898923   -0.27968639900194    0.03089194152605
H         3.49820491370547    0.55292072736373    0.05097429444265
H         2.89687539538565   -2.52158488083636    1.86212311122721
H         1.28878946400165   -1.82997390233398    2.10597621111379
H         3.14388764451239   -3.78984694324035    4.35552358410203
H         1.53890725491289   -3.66967987887867    3.60564771640629
H         1.75753426642038   -3.19915171685360    5.31099777878961
H         4.09086862612716   -1.75359230730621    5.22075835140251
H         5.24588591157648   -1.97990407775386    3.23817697501525
H         5.59370695568740   -0.35190555936995    3.77735505711700
H         3.05136692682175    1.64432546625074    1.96239327972634
H         0.29789577950828    0.96738208753504    2.71661659508206
H         0.86913025046363    1.18023192707555    1.14949677653522
