32
 energy: -49.318884420594 gnorm: 0.147446022095 xtb: 6.4.1 (79825abcba525fcdf90b791dcacef51065a7a4e7)
C         3.54567386558204   -1.59198739880363   -0.40419802753387
C         3.18922226495675   -0.26781852556925    0.26051328912315
C         3.07979822691570   -0.32899712587010    1.80823263749496
C         2.29326463925307   -1.58013284677784    2.30382211478672
N         2.32290422378878   -1.70877284331327    3.77851697343584
C         2.02725226229881   -2.98510779232700    4.41373377828046
C         3.58966377469087   -1.18378960364155    4.36807870698370
C         4.73418533814633   -1.29390415657768    3.32263516338817
O         4.46493587633883   -0.32988453060253    2.26483149967666
C         3.40310122469014    0.25243281070333    4.73478818804937
C         2.88249749916693    1.14143199582595    3.84130815826283
O         2.67772053286064    2.33399291248621    4.45339131256305
N         3.05902691446438    2.16037435031405    5.79551680600188
N         3.48920620223401    0.90429807569108    5.92673652994866
C         2.51720233411315    1.05462628283331    2.40678611625275
N         1.04484197400432    1.14766090797843    2.37828440934268
H         2.69464017529023   -2.26777697975995   -0.26444502014796
H         4.44792185716032   -1.95995351909771    0.09010955937168
H         3.56469807352033   -1.44354079527328   -1.48789070200726
H         2.23945494417280    0.11290224885643   -0.13137008802047
H         3.93509814256648    0.50027288892637    0.02110610141233
H         2.60016224998101   -2.44721427527811    1.70377522259247
H         1.20675943748475   -1.49557161701659    2.18815120732471
H         1.73033871091929   -2.81193662873717    5.45500163447210
H         2.84769355588265   -3.70822384429677    4.37133380504478
H         1.23167042541041   -3.51107515472050    3.87608752807263
H         3.83130526938547   -1.71241304155468    5.29782026348815
H         4.88447670969604   -2.31673092745477    2.95944779636397
H         5.65837624229853   -0.92949702582712    3.78534238070024
H         2.93255694422062    1.91961829184910    1.88227171378688
H         0.51651762797421    0.49745982894017    2.97139667679666
H         0.75477225777806    1.07150174682046    1.40692033775404
