32
 energy: -49.310926950402 gnorm: 0.143902359175 xtb: 6.4.1 (79825abcba525fcdf90b791dcacef51065a7a4e7)
C         4.09117803168863   -0.13730420556500   -0.30002610903650
C         2.85304341642410   -0.71772876790063    0.37261948179745
C         2.98073908741679   -0.61715905967831    1.91687696421910
C         2.08910550461469   -1.74029965940328    2.52772011743060
N         2.07354665339790   -1.87018162950572    4.00252189465549
C         1.85836570518111   -3.25366698561100    4.40203010171185
C         3.29628915679570   -1.22739805536704    4.56785387184591
C         4.54747227198163   -1.39889508095665    3.66223992511025
O         4.36131796301571   -0.77340591301700    2.36036144688564
C         3.14854090564459    0.24289896307994    4.78788433237079
C         2.89349233333987    1.04955321963982    3.71834541078833
O         3.27409478679123    2.32109526455282    3.99602064367353
N         3.78922001803078    2.27184352011427    5.30333050204697
N         3.70890492677935    1.01922914457597    5.75555518137893
C         2.38802395156388    0.81654779872494    2.34392208903441
N         0.97620741488821    1.19159180444573    2.13552619267877
H         3.74241009794806    0.37344714306360   -1.20444569766822
H         4.78045357997944   -0.95554657010849   -0.52176727998562
H         4.57561216499526    0.62150388777918    0.32152193880731
H         2.67365370143797   -1.71267097113032   -0.04985914631143
H         2.00846529953995   -0.07612473896718    0.09218566910451
H         2.43625067279758   -2.73501078669160    2.21769974218331
H         1.04675811504580   -1.64078551587832    2.20425022995209
H         0.83489099433967   -3.50298121488357    4.09751969055626
H         1.94067130181927   -3.24037477487610    5.49329890859274
H         2.53013708402425   -3.95233707544466    3.89287498110740
H         3.63991855862234   -1.67191676602716    5.50943481299343
H         4.67830220035514   -2.48178768168735    3.55786408993424
H         5.42173597964342   -0.90170261406309    4.09753519615532
H         2.91323927711046    1.54505370530746    1.72000381966053
H         0.30543852536762    0.52388923772615    2.53290837103370
H         0.71467259913292    1.35051716346653    1.16607733938873
