32
 energy: -49.314185037142 gnorm: 0.143603445471 xtb: 6.4.1 (79825abcba525fcdf90b791dcacef51065a7a4e7)
C         3.43440762857397   -1.42286947884156   -0.56189972774870
C         2.98346916191656   -0.22724138796430    0.26843156455465
C         3.00200046863405   -0.37853313119700    1.81372086910574
C         2.27513366605775   -1.66054866530728    2.32134813924091
N         2.31371370809276   -1.72270774141312    3.80013126096294
C         1.78746320427041   -3.04048993298758    4.12640089587335
C         3.55196523134436   -1.16027440864902    4.41516955782741
C         4.72439909822050   -1.19153096187400    3.39564569901882
O         4.41366058798567   -0.47254119039550    2.16793523153603
C         3.44289584121462    0.28427594904936    4.78040154827355
C         3.01019562745601    1.18974668116003    3.85706647361469
O         3.01517203612774    2.40975594014501    4.44895631473679
N         3.51749352968381    2.25168209091506    5.75261446712663
N         3.76159038400022    0.95121664979449    5.92351446645909
C         2.45091530893252    0.96757598276840    2.50182664211196
N         0.98878102341318    1.00788068603299    2.69638174748874
H         3.50766757050417   -1.06426258890785   -1.59462180254582
H         2.72001735403502   -2.23929177709476   -0.43193180351093
H         4.41311645837456   -1.74133771229761   -0.19109635797867
H         1.96743813517642    0.13107499675736    0.06875888483210
H         3.62474376739594    0.65809330431616    0.17590904792147
H         2.90531631917026   -2.52203060741735    2.06290796933887
H         1.28372895643332   -1.81141415274620    1.87932979462448
H         0.69508825812176   -3.07359281331766    4.03692557833905
H         1.89021921972526   -3.31581888264379    5.18065592592454
H         2.21031812578023   -3.87132046493760    3.55231905757673
H         3.84122616062254   -1.76040621432499    5.28604420264131
H         4.83764465438625   -2.26945468263664    3.23463927026170
H         5.64209804091518   -0.68087756167190    3.70882473759129
H         2.63613753958550    1.81953261746111    1.84174436284525
H         0.64259941557721    0.27626737888382    3.32770613897962
H         0.58236361631835    0.85400592288997    1.77734079684119
