32
 energy: -49.313221782689 gnorm: 0.151210272184 xtb: 6.4.1 (79825abcba525fcdf90b791dcacef51065a7a4e7)
C         3.49003787083912   -1.49337982333358   -0.49488061226451
C         2.92852008312230   -0.28994389550343    0.25262312000308
C         2.97531485162197   -0.37212466377149    1.80252899058775
C         2.21020282900369   -1.59465202073498    2.39381155775937
N         2.38943245634912   -1.70055102415569    3.85969485286496
C         1.83647289460011   -2.98593718489582    4.26213679482312
C         3.70288790626503   -1.15778790087152    4.31588908615873
C         4.78630367117971   -1.22003410347430    3.20353000620408
O         4.41089975576873   -0.58404100949998    1.94839559647302
C         3.47981178065830    0.24540594620107    4.77773360080527
C         2.91232407414728    1.13964692698893    3.91869625597018
O         2.80887985208224    2.31198445076121    4.59227250663786
N         3.31663787914402    2.07079038797163    5.88101065540834
N         3.69116021292686    0.79623961623513    6.00451694445475
C         2.54098900442663    1.01720320593228    2.48833018255110
N         1.10029539550133    1.33301887838563    2.53277359178758
H         3.56034221380439   -1.13584211533647   -1.52817867743373
H         2.84824100032514   -2.36833553797301   -0.36705350562763
H         4.49470501018915   -1.67548355414363   -0.10210803282396
H         1.87523401758719   -0.23865971881377   -0.04492898617175
H         3.36764570898843    0.63903799293273   -0.13178861549444
H         2.50304724459364   -2.51909109506854    1.87832424168574
H         1.16353313746766   -1.44309074359531    2.10652136854698
H         0.74896703223113   -2.86215076206232    4.19586025255742
H         2.06137908317337   -3.12947576069647    5.32356620104682
H         2.29882144669399   -3.86511536490026    3.80177263506412
H         4.13067950096767   -1.70084159441131    5.16697060999105
H         4.92029485800539   -2.30172969627999    3.09106588842180
H         5.70118853158431   -0.74376368941156    3.57389676702223
H         3.03614102718619    1.80605034786095    1.91527637980586
H         0.64274494283428    0.80115248000857    3.28206388474348
H         0.57666907520646    1.13888387884922    1.68329381260364
