32
 energy: -49.308954205629 gnorm: 0.162492780311 xtb: 6.4.1 (79825abcba525fcdf90b791dcacef51065a7a4e7)
C         3.89982815681219   -1.47566907627343   -0.21300337993656
C         2.95331524652860   -0.38532582139984    0.27442558888960
C         2.92287875827490   -0.38156978391980    1.82691107146063
C         2.12064645824101   -1.53572476644354    2.50065751082900
N         2.47117481293756   -1.73902078099347    3.92471941600999
C         2.13879157955387   -3.11302897996185    4.27338005936569
C         3.76229669749894   -1.14701736026352    4.38342025742749
C         4.74532436914235   -1.22152394603491    3.18212411926449
O         4.33296987458480   -0.25247950385912    2.17629393746881
C         3.35563247677456    0.26227094130398    4.66722826707513
C         2.84015800516748    1.14401055850507    3.76363781310623
O         2.72335313952165    2.33958532207379    4.39271536402750
N         3.11836316106238    2.17623817487279    5.73216435482390
N         3.48294256852215    0.89957407848430    5.86335540116869
C         2.36028150463320    1.02647088287822    2.36552040210560
N         0.90469034791828    1.20350178165831    2.53052734471084
H         3.68723517826380   -2.52750690291291    0.00818029252483
H         4.83378255433472   -1.21357615738426    0.28981565696420
H         3.88394916795147   -1.32111304594136   -1.29589230469702
H         1.98947373051988   -0.65915623921397   -0.16897636732546
H         3.42153406029748    0.55175263982197   -0.05155931146169
H         2.48017680569140   -2.39969276559024    1.92587940928932
H         1.05521915877077   -1.30553142874732    2.38708101231076
H         2.01460229078957   -3.27171940764212    5.35123859736632
H         2.90713078045983   -3.82345730562275    3.95281030268623
H         1.15451941046176   -3.36563839548273    3.86588478255663
H         4.03211917136530   -1.73116409125997    5.27123845380375
H         4.70082128913547   -2.26050235139250    2.83685535017075
H         5.79070565767990   -0.94375450980628    3.35830997705633
H         2.73391688109005    1.81971745010887    1.71206612237461
H         0.50199099037579    0.51159887614230    3.17300211031548
H         0.50887440852974    1.10866190093612    1.59895664861045
