32
 energy: -49.312037657214 gnorm: 0.149733853646 xtb: 6.4.1 (79825abcba525fcdf90b791dcacef51065a7a4e7)
C         3.56370300681733   -1.42734422902655   -0.38502678442990
C         2.99761406659652   -0.19813419362294    0.31562155419223
C         3.02883917372601   -0.39621156482369    1.85540789873796
C         2.43682733196017   -1.75184850199808    2.34668691418653
N         2.44509599302411   -1.86289213992591    3.82308544262008
C         2.05572967182693   -3.09495286933169    4.49417529509275
C         3.64815442736640   -1.15405399613922    4.35040800248258
C         4.84745333861582   -1.14899067869194    3.36214512670694
O         4.45143133877833   -0.40139014888263    2.17680225388522
C         3.31157799838835    0.27828852359578    4.60949768785137
C         2.83905469739465    1.24941043420529    3.77685231494609
O         2.73260341612828    2.42701874209247    4.44069545380666
N         3.15289989971141    2.17126616497747    5.75780603584950
N         3.48510999530808    0.88052097899319    5.81792061553442
C         2.39688251788641    0.98505590706441    2.38637408039194
N         0.93059297585426    1.14048787241299    2.44248738776363
H         2.67358945830645   -2.06495146365590   -0.34458309785008
H         4.43007897993026   -1.89253937535854    0.09118392938480
H         3.76411747515978   -1.19753821456895   -1.43565105877669
H         1.94509146695854    0.00106556378923    0.08519913087559
H         3.64296706051375    0.66657339117419    0.11709861377317
H         3.02983977973315   -2.52782597944584    1.84442422354629
H         1.40898437420155   -1.91820160672353    2.00479598871374
H         1.46236179171423   -2.83386690049241    5.37855831743478
H         2.82309511082879   -3.84163719639879    4.72095997898294
H         1.37598063749995   -3.59190794757270    3.79443783179663
H         3.94082539708333   -1.66287859737712    5.27652567214583
H         4.98487076864668   -2.19129890597362    3.05331316913320
H         5.68186005143811   -0.57475677092103    3.78052319583201
H         2.68415234391495    1.77894028639837    1.69134197786763
H         0.47882933356269    0.38257271547027    2.96702952112229
H         0.65054987162965    1.11617845554494    1.46551567199416
