32
 energy: -49.311230627048 gnorm: 0.155005447791 xtb: 6.4.1 (79825abcba525fcdf90b791dcacef51065a7a4e7)
C         4.04004140804897   -0.45397398011023   -0.54234713627294
C         2.86842490641193   -0.81758202204147    0.36176903689651
C         2.99007886620240   -0.50973352173850    1.87886536163112
C         2.00031795632102   -1.48880459122310    2.57984883068776
N         2.16509088612859   -1.72798547985488    4.03167322950790
C         1.89823940757487   -3.10596895812037    4.41883367420889
C         3.47024649195394   -1.22258980540032    4.55033909950656
C         4.56018936555921   -1.57251486177314    3.49934717465658
O         4.35927848548999   -0.72288875146158    2.33377950312589
C         3.27062059894569    0.25304179065460    4.67148848988556
C         3.10560776567209    1.18078749698903    3.68573342032699
O         3.02107584049326    2.41666893369696    4.23730606090553
N         3.26918798137581    2.24954180927160    5.61111379741849
N         3.50506164296335    0.95241137394563    5.81560511605298
C         2.63397282996737    1.00437475857958    2.29100464567783
N         1.16969492445364    1.17900820624057    2.23898336467619
H         3.76190524287242   -0.58130844658615   -1.59444361983010
H         4.88377562568369   -1.11012893758680   -0.31571144356248
H         4.44578801381876    0.55555634093143   -0.42830175108348
H         2.72551233903776   -1.89349577900348    0.21155438101428
H         2.03402271595552   -0.20945724961880   -0.00913296762109
H         2.11875099490726   -2.44974449626603    2.06154317660384
H         0.97072951631955   -1.15135533552778    2.41522937447469
H         0.83843050241529   -3.27675286113830    4.19517633751784
H         2.14103774150378   -3.34544804867393    5.45879388291107
H         2.38941021905597   -3.89601881768167    3.84157457147285
H         3.64680643939819   -1.86823501224520    5.41879840593671
H         4.46744719370823   -2.61347691398899    3.17000834460009
H         5.56534557107604   -1.35577261022517    3.87842915945761
H         3.17518111791637    1.74546007229636    1.69625078785150
H         0.72924066457897    0.64743034534639    2.99865122010082
H         0.82978630711184    0.86764826493316    1.33288958399496
