32
 energy: -49.307130384459 gnorm: 0.150285086105 xtb: 6.4.1 (79825abcba525fcdf90b791dcacef51065a7a4e7)
C         3.28865759163026   -1.48531418915503   -0.42039964083719
C         2.90994085536470   -0.18154374034989    0.27175520968261
C         3.01470393629122   -0.40627027902650    1.80461994384626
C         2.20485026558852   -1.58442820580980    2.42563968368936
N         2.35757526765128   -1.75175939245695    3.88879620914516
C         1.97090332438450   -3.02220257512250    4.48578891641061
C         3.69810552265556   -1.23597924182859    4.29477609316704
C         4.83602915363649   -1.24769883018669    3.23647581027350
O         4.44532910527588   -0.44570721382508    2.08541516204962
C         3.54251923666582    0.21204108885532    4.62801218470311
C         2.84071625746805    1.14142417271847    3.91852362306311
O         2.59329914135805    2.22192004327330    4.69960899056379
N         3.23216198542077    1.98180171869724    5.92885113749643
N         3.75841977309012    0.75796575059827    5.85619640598163
C         2.54540685716308    0.97948002072659    2.47443370056051
N         1.18440134497767    1.48270989334300    2.20659702834467
H         3.51359716773993   -1.47570779688485   -1.49268258175480
H         2.50597962326314   -2.23939885214064   -0.30831925408401
H         4.25763942960736   -1.79231747086782   -0.01591069042276
H         1.89880870998199    0.12360790022777   -0.01991774054294
H         3.59913721861583    0.64382735889630    0.05408121236241
H         2.44346111011844   -2.49119972615134    1.85388545992564
H         1.13747331247812   -1.42401182804844    2.23591110118837
H         0.91903996580271   -2.85596854266055    4.74719736903079
H         2.48015618191729   -3.24757438833303    5.42796064626372
H         2.11191265332749   -3.87893492854943    3.81886938812028
H         4.01598242835784   -1.84710911662289    5.14784541089006
H         5.06107063663759   -2.24965343897348    2.85423183273786
H         5.79395233025849   -0.92193945187063    3.65752611945978
H         3.28226395001172    1.67882921343026    2.06971363024842
H         0.40124525257194    0.84478864233980    2.38933516632915
H         1.14294565700046    1.79899885003855    1.24133461060664
