32
 energy: -49.318805020744 gnorm: 0.147238391095 xtb: 6.4.1 (79825abcba525fcdf90b791dcacef51065a7a4e7)
C         3.72725584722342   -1.59667433677354   -0.17102537239377
C         2.97218058378555   -0.34877070754095    0.27047205257269
C         2.96281378808054   -0.29747574488348    1.82238465835824
C         2.29701488388195   -1.58995748639337    2.38433430660833
N         2.40565236269289   -1.75287933035397    3.85191942249886
C         2.12416849158107   -3.13994847475155    4.19360261510081
C         3.65635745600371   -1.15298190340159    4.40303653313034
C         4.75704316284050   -1.10962906652293    3.30685290425269
O         4.35265028278634   -0.19120588352514    2.25151269056899
C         3.32364249409745    0.26557236495196    4.73321956077129
C         2.83133514396900    1.15622841382211    3.82546427307789
O         2.78025365738882    2.39255648516254    4.38013942909693
N         3.20764125929991    2.21897464034638    5.70831411156866
N         3.48782016116270    0.93021648954621    5.90981513647843
C         2.35512397799455    1.06555381586464    2.42409695698748
N         0.87975974973976    1.05943444474624    2.44809240484565
H         3.10863348960106   -2.49398884967966   -0.28333676216993
H         4.47130942549392   -1.71574018182488    0.62017504131537
H         4.08811708073150   -1.44339625160073   -1.19233488920071
H         1.96674033744811   -0.10319797428712   -0.08919835198529
H         3.61530862695874    0.48771099846213   -0.03002042753095
H         2.73548936106450   -2.43192435593921    1.83215267114413
H         1.22841923792985   -1.57288753024257    2.14177321398574
H         2.51645421064024   -3.33371171445935    5.19906389278710
H         2.58829698676222   -3.83260053705248    3.48463409502279
H         1.04800983954317   -3.33633880871434    4.14922906440319
H         3.92790982591573   -1.67699750951966    5.32711427857314
H         4.82590832956207   -2.09283437969391    2.82807104081385
H         5.78565547263022   -0.81790360658719    3.54741957379637
H         2.71560508175581    1.89032188639203    1.80308406895520
H         0.48906588481558    0.35307999788795    3.08219959202414
H         0.54275035881102    0.89113638655764    1.50385236443063
