32
 energy: -49.319383286804 gnorm: 0.145732291447 xtb: 6.4.1 (79825abcba525fcdf90b791dcacef51065a7a4e7)
C         4.03733375889139   -0.23000806188296   -0.37761243922395
C         2.78523873166301   -0.68651783239943    0.36142678033820
C         2.96010764742267   -0.64768932468105    1.90384853230569
C         1.94270534407806   -1.59921564763828    2.60318739475856
N         2.04958032181568   -1.71838852332339    4.07510018700241
C         1.88953254185286   -3.09978569655552    4.50645612878759
C         3.40251969440103   -1.22989670541476    4.47359863211131
C         4.52407400000853   -1.61855729044514    3.47057025637403
O         4.36258562628460   -0.90095143658871    2.21369275706407
C         3.39650541376371    0.24785802294111    4.69319159671149
C         3.01351259866037    1.09504491735520    3.69557180220368
O         3.03170292770031    2.35228311480002    4.20331403149173
N         3.38138400329060    2.23100403936286    5.55972596633606
N         3.66055041901927    0.95397262219747    5.82666663738806
C         2.64645725433371    0.88650050918079    2.27409056352603
N         1.23461276220702    1.25799987907445    2.05962336823765
H         3.90123167101372   -0.40835075819756   -1.45006332820327
H         4.94267003472342   -0.75394289818554   -0.06194012367364
H         4.21561135792863    0.82820178207054   -0.16501621669580
H         2.61271359279147   -1.70759418676551    0.00335274483383
H         1.86759149028485   -0.17417763679407    0.04671720874639
H         2.20058805928845   -2.57153892946216    2.16255537216331
H         0.90455056914474   -1.32976823133861    2.37811702268198
H         0.86877191911334   -3.42829322016187    4.27729413573261
H         2.06211788751700   -3.10933451165375    5.58716960756838
H         2.60170389174237   -3.73947355276213    3.97516803794683
H         3.69290321843811   -1.74476823786147    5.39709061333123
H         4.59653606400670   -2.70383282033827    3.33792999068505
H         5.53332636323004   -1.39130285331736    3.83221157017455
H         3.24016970770953    1.60360222646897    1.70040366649330
H         0.51347317019342    0.97181653903717    2.73172976331281
H         0.87319164060881    0.89096433923307    1.18318255298480
