32
 energy: -49.312216565470 gnorm: 0.145210667071 xtb: 6.4.1 (79825abcba525fcdf90b791dcacef51065a7a4e7)
C         3.57581471433025   -1.54424667593612   -0.50278925750013
C         3.09305611372686   -0.32049566551011    0.26643091085913
C         3.08717006863811   -0.35060292634260    1.81891617888405
C         2.40807320925866   -1.67380760108259    2.28532956526342
N         2.36040637122220   -1.71728258395638    3.76451497535686
C         1.95985550892727   -3.03980050551999    4.22325970063024
C         3.52962129056111   -1.08160228181440    4.44032353551863
C         4.77506025148520   -1.04916822866820    3.51143341860973
O         4.45176021831771   -0.26637486898139    2.32674386353575
C         3.22501923961828    0.33643156285411    4.79867232422757
C         2.75034782512568    1.20343490571363    3.85917958938554
O         2.87354284583562    2.44059609433769    4.40050767414436
N         3.38992058456874    2.26874727848309    5.69691070391423
N         3.57279297601885    0.97187112201976    5.95121439883556
C         2.32842431378298    0.91122469438364    2.46798478008744
N         0.85881665983070    0.78709032222896    2.51442625695239
H         2.90922527986266   -2.39934510330670   -0.66073228915561
H         4.48532843137124   -1.85044654334042    0.01952954585988
H         3.63074638637644   -1.24263278406961   -1.55293196103158
H         2.11115460489074   -0.00061252725108   -0.09979722953800
H         3.85383019749011    0.43869373268401    0.04628255594339
H         2.92163526492637   -2.50894062459851    1.79047658904118
H         1.35540702496977   -1.65072649996760    1.98138042204207
H         2.39748516653041   -3.30567548645708    5.19288613982907
H         2.39860565405825   -3.74401887111169    3.50954175636985
H         0.87262600652415   -3.16001044087434    4.26948950988882
H         3.84297610017058   -1.64506577028668    5.32721156022391
H         5.05542302342010   -2.04001043108262    3.13687286215996
H         5.57725113262392   -0.44774943445894    3.95393152480388
H         2.62072666510263    1.83515898915001    1.96127900397257
H         0.55070162528004    0.00496843752436    3.10351088970794
H         0.42114208093556    0.68579280079652    1.60246760235716
