32
 energy: -49.313233406380 gnorm: 0.152575558180 xtb: 6.4.1 (79825abcba525fcdf90b791dcacef51065a7a4e7)
C         3.88220170663497   -1.30724603828472   -0.47903451738439
C         2.95080536238460   -0.41687851949537    0.33464147193855
C         3.04516838375075   -0.41549737436309    1.88455932400485
C         2.24274348398335   -1.62162749007512    2.45984103116283
N         2.27197159768340   -1.72219296074728    3.93672423531646
C         2.17490121667605   -3.13857752817057    4.25979309341912
C         3.52859211888472   -1.11826591137795    4.46968501507807
C         4.68974285463673   -1.26366661880939    3.44714179892831
O         4.46277890006897   -0.54024096515595    2.20379133174402
C         3.29816763421264    0.32902209689137    4.75999216418816
C         2.86464768115356    1.18963999972623    3.79508199457246
O         2.65140541577097    2.40330678105853    4.36105161626467
N         2.94327240298986    2.22552996695483    5.72488733560628
N         3.37593401258951    0.98386525025496    5.95088094414409
C         2.52150922359076    1.02934895443551    2.36141813430872
N         1.05885632921325    1.18206402313034    2.24043283542872
H         4.38599870873935   -1.95528066766206    0.24672060883161
H         4.66087291196634   -0.82106988585297   -1.07156670642467
H         3.32969575827903   -1.91856460397944   -1.19862809380443
H         1.96070985713699   -0.76873946353919    0.02402334166037
H         3.04687435453570    0.63296108631660    0.03096631693298
H         2.72089666982266   -2.51762391760612    2.04195041828125
H         1.18978743440631   -1.53511070362116    2.16859831485521
H         1.21831801350570   -3.36736846749906    3.77503754207942
H         1.96806324030646   -3.10002997491136    5.33382784299111
H         3.04760962738802   -3.72538408394590    3.95533666739634
H         3.74534948059471   -1.55466137305605    5.45194158264715
H         4.90276762881045   -2.31265462106554    3.21280916867199
H         5.61573606476582   -0.86693064594788    3.87860036409903
H         3.07603148017354    1.70639951615115    1.70570966741767
H         0.73225216893659    0.77354196028695    3.12367101134882
H         0.71093184210951    0.66361172867266    1.43815820202337
