32
 energy: -49.315693352115 gnorm: 0.156773400319 xtb: 6.4.1 (79825abcba525fcdf90b791dcacef51065a7a4e7)
C         3.61294966826967   -1.64649755878294   -0.33173420717238
C         3.03776457328469   -0.36469042746907    0.25856628640002
C         3.09826824475952   -0.35451369274926    1.81014205722422
C         2.35774642098832   -1.59348312521585    2.39850146956102
N         2.42227531576740   -1.75642647715088    3.86868417073140
C         2.13540851397166   -3.12737239764059    4.26637261719130
C         3.64899909114329   -1.12594975113031    4.43922609165680
C         4.79947427629607   -1.09453443927117    3.39499098397452
O         4.49266441898129   -0.27586232469465    2.23033593491878
C         3.35973962931893    0.29353811496752    4.80446496363443
C         2.84861427064347    1.12516157538150    3.85220047184865
O         2.52171940009966    2.31421292519110    4.41618413830154
N         2.80902325779630    2.24551211734629    5.79080244738964
N         3.34561193271242    1.03399193672686    5.94666100589626
C         2.48827992454865    1.00436139867685    2.41888411874403
N         1.03655792113238    1.18951671142280    2.23038065796304
H         2.92525233662312   -2.49817333812396   -0.28481353867396
H         4.48636795329086   -1.97400623088171    0.23718499949374
H         3.98890277458200   -1.58207053448294   -1.35706173900072
H         1.99372804344699   -0.19534014762973   -0.02759287053276
H         3.59452701562779    0.50804427528650   -0.10469776346514
H         2.68293347194153   -2.55245678920201    1.97341851105744
H         1.35004005221616   -1.41261896729009    2.00755396407842
H         1.06483552387338   -3.23374138252246    4.05437315451513
H         2.17317671695312   -3.14155407739292    5.36007776282784
H         2.85896087078047   -3.83427121789107    3.84753892463144
H         4.00146499007313   -1.64875522900242    5.33627399392737
H         4.95237554667492   -2.12410704410041    3.05254591843532
H         5.75337471613084   -0.68152383908843    3.74214447440409
H         3.03594362793057    1.75542951912207    1.84285708211955
H         0.63929446646346    0.47915621301473    2.85587241483571
H         0.77114477222542    1.06734981157283    1.25666615908945
