32
 energy: -49.321775958261 gnorm: 0.145362153500 xtb: 6.4.1 (79825abcba525fcdf90b791dcacef51065a7a4e7)
C         3.79273079288410   -1.42696692465367   -0.50873381902644
C         3.07470806121861   -0.32283250667645    0.25785122209479
C         3.06506745513630   -0.37214887206396    1.80982627948227
C         2.42919908002724   -1.68769733890048    2.35258613772634
N         2.41388306253095   -1.73208654980865    3.83243299217742
C         2.01579676070983   -3.05166384742195    4.30167113281648
C         3.59410366315564   -1.07334193610917    4.46568261397182
C         4.77742354647327   -1.09317623407418    3.45852438942399
O         4.46783784740457   -0.41696373606104    2.20645767739560
C         3.18430179758444    0.33223511916247    4.76305755495949
C         2.85836566437351    1.21590450397039    3.77687885181976
O         2.82180664095168    2.43775912800331    4.36383340552612
N         3.04206025336503    2.25795469355311    5.74078566092057
N         3.36258597885218    0.97943395677803    5.94730063787536
C         2.34812668562320    0.93604487892032    2.41300053563177
N         0.87873854762440    0.84294205946808    2.51068977878908
H         3.10665327306737   -2.28111397387464   -0.49419908494241
H         4.82133457672327   -1.60581738515527   -0.18658903702087
H         3.83978458606088   -1.00305671354691   -1.51614346905199
H         2.04033129080667   -0.23472324091356   -0.09269165070769
H         3.58008139490534    0.62167844990381    0.02098016913493
H         3.08364766197467   -2.48158386566504    1.96851079444625
H         1.39615748255447   -1.79028072663457    2.00140865881461
H         1.00568991326667   -3.34884258437721    3.99547901538615
H         2.06012862178549   -2.98117457872029    5.39294765712554
H         2.70251929822355   -3.88259423228167    4.11030115645776
H         3.80957887837897   -1.69715817217294    5.34128323723806
H         4.99492692509854   -2.14729893464634    3.25313504634719
H         5.62341091104104   -0.53115842267670    3.87018044779182
H         2.49022474525341    1.80644609181126    1.76642814028620
H         0.53111260802863    0.06992679717929    3.08971813149999
H         0.53522799162549    0.74224187123420    1.55919159726839
