32
 energy: -49.310379880817 gnorm: 0.156688328667 xtb: 6.4.1 (79825abcba525fcdf90b791dcacef51065a7a4e7)
C         3.52521948036883   -1.56008715552078   -0.34206818580478
C         3.00073612025820   -0.30899317709976    0.35219628690044
C         3.06627321489871   -0.42003645864813    1.89962186968094
C         2.20767771653973   -1.61176409681677    2.42133409398832
N         2.26037190212580   -1.71641857593366    3.89728208453162
C         2.29042444141323   -3.14265783575474    4.18862349294209
C         3.52251595802300   -1.14594930979463    4.45354409253458
C         4.68041581662533   -1.23435006938272    3.42084845945464
O         4.46387618238882   -0.32370353035105    2.30522702713550
C         3.34930506596806    0.30233926974578    4.77676919158023
C         2.82811954746809    1.16363081759146    3.85687957359227
O         2.69136740521168    2.37817769900402    4.44420884192707
N         3.17127062814051    2.23635198954281    5.75814079216946
N         3.51829311394330    0.96320739658969    5.95480977666590
C         2.52487988688196    1.00525787040604    2.41403757839121
N         1.09399287017008    1.25900749119425    2.15813466390591
H         2.81148699207973   -2.37725979013361   -0.18943913992668
H         4.53151672974743   -1.77247741575260    0.02677693053969
H         3.61417392307840   -1.53225224628506   -1.43206839366551
H         1.94988724670319   -0.34411471961317    0.04387505170660
H         3.39248785044067    0.64956970197652   -0.01015553085772
H         2.57526140907630   -2.51289620529370    1.91249641238131
H         1.16223409786626   -1.44629187459086    2.13727335189791
H         1.75251409079996   -3.28243024326074    5.13387520113374
H         3.24349132997097   -3.68059180231672    4.19906652305371
H         1.66394501378629   -3.58163939914518    3.40537746695385
H         3.80425393982617   -1.66583666037754    5.37690403227276
H         4.77036604337332   -2.26581263367952    3.06215484782054
H         5.57050995707811   -0.96752495575488    4.00184427561326
H         3.17127507675656    1.74090036255812    1.92736583218934
H         0.40328894796512    0.56483344125203    2.46590194742702
H         0.96096378801649    1.44327874242876    1.16725818949421
