32
 energy: -49.309788457069 gnorm: 0.158121385304 xtb: 6.4.1 (79825abcba525fcdf90b791dcacef51065a7a4e7)
C         3.13340846084033   -1.53714744684585   -0.42219381845928
C         3.03952390498599   -0.17156634609516    0.24765395089419
C         3.03219646472954   -0.25967250070456    1.79792336135069
C         2.30503226061646   -1.50472714220984    2.39008532039367
N         2.36707777948654   -1.68173278387610    3.85874833588943
C         2.04250640539120   -3.06615300249979    4.17175866796835
C         3.66150179088807   -1.17990846557894    4.40693539480694
C         4.71021270933092   -1.31471300991637    3.26805867849957
O         4.43814867022041   -0.42197266886728    2.15012596815313
C         3.39375197528905    0.24755276087580    4.75719350896324
C         3.05314321781356    1.23958118567895    3.88568926952937
O         2.88494124794615    2.41316908206862    4.54385374471040
N         3.29187616072946    2.14008068412212    5.86167979814429
N         3.57515613398331    0.84075326302225    5.96892324403951
C         2.54989142880411    1.10693773360872    2.49717472850554
N         1.07540400055589    1.05194149158402    2.51040596423719
H         3.26403239677167   -1.48592296569419   -1.50883738565845
H         2.25150414108246   -2.17955218234546   -0.36430237185904
H         3.98358059234788   -2.08519215351951   -0.00548951789788
H         2.26102773038813    0.47765119985880   -0.16832577829764
H         4.00547296874468    0.27764941180774   -0.01456477522930
H         2.71434282503118   -2.36181461532889    1.83877909155694
H         1.24156671287960   -1.37719898735124    2.15813377783685
H         0.94855200881449   -3.10121228581215    4.23823638092049
H         2.33001903723100   -3.32035578920964    5.19671521938931
H         2.47622587321726   -3.72815457937365    3.41525555842166
H         3.97315100952691   -1.74244548375640    5.29501173240890
H         4.66782687126172   -2.39894877388295    3.11540410463173
H         5.70816223984061   -0.92572962816782    3.50002422786839
H         2.78740679324589    1.89061519245737    1.77241126598190
H         0.68246623644446    0.37862207839037    3.17817171985933
H         0.70435969104315    0.73431258982590    1.61881927779309
