32
 energy: -49.312536175916 gnorm: 0.146600239321 xtb: 6.4.1 (79825abcba525fcdf90b791dcacef51065a7a4e7)
C         3.95349566226393   -1.21965879649356   -0.47717334325356
C         3.15111849198566   -0.19971242624534    0.32171486055200
C         3.08516363229577   -0.40130841945600    1.85994782140167
C         2.50325537679356   -1.78603156095022    2.27649221030685
N         2.30553178849425   -1.66239164425119    3.73860378344894
C         1.52172627891518   -2.70394597088252    4.38725999916965
C         3.54497601396523   -1.21295628854267    4.43835809421575
C         4.77481608143477   -1.10484089254611    3.49452997486668
O         4.43746744588984   -0.23146486374900    2.37909825691203
C         3.27168486758019    0.23692833096991    4.67322579419148
C         2.81485154960753    1.12711549387840    3.74665981372306
O         2.95259386215479    2.36381578363688    4.28552934858556
N         3.60763530981950    2.21662742078023    5.52088156083965
N         3.78662554307550    0.91231741221845    5.73707209846810
C         2.17247097569571    0.78262217065936    2.45534233260918
N         0.73753177112006    0.55048291876585    2.70906198028898
H         3.45092380201607   -2.19252026659717   -0.43918798825828
H         4.99315426144464   -1.37107475885686   -0.17721718740366
H         3.77785158144784   -0.88992527201250   -1.50538202291606
H         2.11632954238104   -0.21429797691327   -0.03825450870503
H         3.57886812105016    0.79798935173613    0.16286756339592
H         3.10900078507955   -2.64740944350121    1.96476593851936
H         1.57755290043733   -1.74211000925246    1.69153943974723
H         1.26585532636547   -2.48354760028810    5.43049500144007
H         1.90889153481788   -3.72553255557332    4.32181985386426
H         0.57358168262351   -2.82994845941405    3.85453040948886
H         3.68045516056874   -1.81815514916625    5.34258840715260
H         4.98372084981289   -2.06279054260924    3.00528725636824
H         5.67044355290842   -0.76689709222418    4.02806982660209
H         2.23878009173078    1.57151771762935    1.70095986446397
H         0.51331484583798   -0.18597058953639    3.38805625167784
H         0.22871869181316    0.34401032188368    1.85351120375447
