32
 energy: -49.311289172149 gnorm: 0.150997882644 xtb: 6.4.1 (79825abcba525fcdf90b791dcacef51065a7a4e7)
C         3.30571107075180   -1.56083783179408   -0.45812176945329
C         3.04959214306939   -0.24661171664125    0.26956971799417
C         3.21960331158129   -0.36795868221253    1.80824536401875
C         2.47277187469598   -1.64169300245311    2.30767333001875
N         2.43377395304125   -1.75435105416303    3.78345752816373
C         1.78703047868427   -2.94368965955063    4.31931004471307
C         3.64752582054408   -1.20895164913231    4.45963508078830
C         4.81347805228840   -1.19984560289132    3.43226976622155
O         4.58472163610076   -0.29287943279866    2.31608852429137
C         3.35269627199961    0.21483751589372    4.80302436296280
C         2.86180597015808    1.06559957051231    3.85704075001119
O         2.72329553256279    2.29911702053553    4.40296244666721
N         3.08577799013439    2.18517843421000    5.75664751684108
N         3.42582834887020    0.91275423521897    5.96949218939709
C         2.59648263221456    0.99247848905787    2.39995937918886
N         1.13477147592437    1.18061250073380    2.32702847444419
H         2.51382480895536   -2.30668703241308   -0.32733216483564
H         4.20122700218848   -1.94867979545420    0.03322365260482
H         3.46549719156314   -1.43638817506892   -1.53318865391836
H         2.00008397185053    0.00671489357337    0.08265507730029
H         3.66415955919766    0.59986472207672   -0.06118030175279
H         2.95120076248849   -2.52736545700598    1.86862580935303
H         1.40880794782106   -1.69658196858627    2.05078449587369
H         1.35440766454651   -2.71434263541251    5.30044311273602
H         2.46752344506792   -3.77046620572394    4.54555849254835
H         0.92644235797070   -3.33048115116765    3.76393986370818
H         4.03531911479593   -1.82306088551396    5.28106000544247
H         5.18795403496829   -2.15506887504366    3.04758366497445
H         5.64181880555685   -0.65803626647814    3.90270955351627
H         3.09413278772682    1.82163433554295    1.88938039552339
H         0.66846091262075    0.30044151840235    2.57506824111154
H         0.72519297875281    1.39613846159383    1.42188603838591
