32
 energy: -49.312877978084 gnorm: 0.152679985460 xtb: 6.4.1 (79825abcba525fcdf90b791dcacef51065a7a4e7)
C         3.42100051101541   -1.47876995642718   -0.53644690851033
C         2.99181201798426   -0.27859238147752    0.29883334886785
C         3.10681308861120   -0.41481961650676    1.84135353435734
C         2.34691239696479   -1.65376730082873    2.40450909447421
N         2.33296635087043   -1.75404678399451    3.88163509417504
C         2.13880281341928   -3.09601487679727    4.41207221465386
C         3.57396160885056   -1.14365878270212    4.44308630845990
C         4.77309237214613   -1.19900834096230    3.45615730002039
O         4.51093703390802   -0.45178235141141    2.23398480801529
C         3.28502217836062    0.29372726632124    4.73023020080865
C         2.96754787489926    1.22705667471444    3.78801969171277
O         2.71019733730395    2.38372394267965    4.44731663396292
N         3.05586286541603    2.16887234481591    5.79312231638848
N         3.29760219231964    0.86801336653391    5.96437787162964
C         2.56852149178417    1.00364136278869    2.37745497453303
N         1.10559842755778    1.18804502409019    2.32120363588180
H         2.77094799536353   -2.34617587999405   -0.37669869358222
H         4.41913935932169   -1.75696602657554   -0.18986895145235
H         3.50098736350874   -1.14956700415505   -1.57664671963941
H         1.94024507226559   -0.07980173357787    0.06374168083395
H         3.53781578174850    0.62603622075815    0.00364183693954
H         3.01389308212153   -2.46171200543272    2.07521476572628
H         1.36241983413194   -1.73441372526689    1.92985716090376
H         1.78970886461071   -2.96050267169939    5.44268102311167
H         2.94448166875964   -3.80268163137206    4.18998624096853
H         1.21226312242280   -3.41505340614204    3.92381588922013
H         3.86864607622733   -1.64775567653091    5.37114886114010
H         5.04021273148829   -2.20743246965280    3.12090417978282
H         5.63242703100437   -0.63712877005622    3.83937348496846
H         3.09390973559784    1.69877574971808    1.71669679584551
H         0.44248775744906    0.47577922252740    2.64774901292827
H         0.89235028765605    1.17026333238827    1.32737373981208
