32
 energy: -49.315542539173 gnorm: 0.146579406478 xtb: 6.4.1 (79825abcba525fcdf90b791dcacef51065a7a4e7)
C         3.40746987986638    0.29447076724760   -0.52546406342322
C         3.22553019104192   -0.89659743550200    0.40758286566274
C         3.17080163171375   -0.66968440479011    1.94272679996427
C         2.25210291512756   -1.80420451707859    2.48902472013487
N         1.98798886456455   -1.64370270432447    3.93700077062946
C         1.41951117737276   -2.89005353177365    4.43034053443009
C         3.26900733162866   -1.24711672902010    4.59242541622539
C         4.47819860272815   -1.62343058312080    3.69173046453033
O         4.52677774517550   -0.91153543315836    2.42223329245681
C         3.37178191250418    0.24144525048065    4.66750457916627
C         3.08743641567096    1.14085569729018    3.68268843068479
O         3.36633708627213    2.38616558762184    4.14116265286177
N         3.74856955838847    2.24834344146372    5.48717238298883
N         3.74847798866801    0.94462075103458    5.77055831187244
C         2.62963458692117    0.79943716903647    2.31422938962208
N         1.16023732546718    0.89335265916865    2.21745965404661
H         3.58228753186879   -0.11996644460852   -1.52454433531989
H         4.28130875477753    0.89394492948947   -0.25933093178543
H         2.49731022668272    0.89250606106090   -0.62915263437732
H         4.10392451676742   -1.52238005388412    0.21419625592123
H         2.33705320047505   -1.47067240441713    0.11662304602643
H         2.74993518294513   -2.75705472774345    2.26472103392744
H         1.34759034529848   -1.81337137248375    1.87031889389410
H         0.35078891886778   -2.76136971016078    4.22139587564230
H         1.52445083515481   -2.87768410277174    5.51967664857637
H         1.82573359790447   -3.76494536412514    3.91245710517609
H         3.29287508329344   -1.85647320651471    5.50367056686623
H         4.47305370504081   -2.68736038808595    3.42963492883873
H         5.46568903018697   -1.47846764530578    4.14435365907341
H         3.00329540761652    1.54385718253645    1.60566575642313
H         0.64554469914231    0.25744043595664    2.83744139911640
H         0.89383808200959    0.96561781677885    1.23904358474786
