32
 energy: -49.313514143796 gnorm: 0.155175667864 xtb: 6.4.1 (79825abcba525fcdf90b791dcacef51065a7a4e7)
C         3.24732954675614   -1.45451549637749   -0.59068328907119
C         2.87592746862971   -0.23465675152116    0.24377894499395
C         3.09789260224205   -0.35301920349295    1.77605614787978
C         2.37545840072657   -1.60479302699045    2.35978187065857
N         2.32948717063698   -1.73912706939074    3.83355006397064
C         1.88161118213904   -2.95718865102938    4.49360646280956
C         3.62375934304808   -1.21483428732832    4.36066183931249
C         4.73623989013895   -1.26695958604956    3.27683666190126
O         4.51133385861447   -0.39375275173574    2.13328744884972
C         3.45782981159545    0.21525603257714    4.75981761354063
C         2.96547072519268    1.13090265543646    3.87730520448563
O         2.81606988528712    2.25845114666342    4.61561050107482
N         3.30973385858181    2.07382770568772    5.91908618711228
N         3.67861545295695    0.79278706286696    5.97258092895833
C         2.56867116475936    1.00698775824721    2.45392034048392
N         1.11353512377949    1.24527887085226    2.39815955551198
H         3.40300412030396   -1.22177104183901   -1.64996429415272
H         2.46558866139381   -2.21496830669233   -0.65688905555326
H         4.18840843711017   -1.85203329208081   -0.19935446102458
H         1.84359802436250    0.12986085439490    0.19903870917066
H         3.57007442708949    0.52833043176515   -0.12988079858908
H         2.79578518243674   -2.51700246512025    1.91562878753253
H         1.32333840716427   -1.61074968994592    2.05313557791226
H         0.95478891473233   -3.24745655251498    3.98455863899614
H         1.80809562054713   -2.78812120468437    5.57241606563986
H         2.56065444311674   -3.79768120481691    4.31717480003560
H         3.97180664543890   -1.81909788549885    5.20681861811551
H         4.89116826791891   -2.29012631074610    2.91656701488989
H         5.68801906619452   -0.87641982127688    3.65447993854983
H         2.93863085340817    1.80392094173993    1.80286479968696
H         0.64057890307477    0.39293307252473    2.71985705014682
H         0.78537655840922    1.74240803341085    1.57434928287790
