32
 energy: -49.308755573122 gnorm: 0.153819493111 xtb: 6.4.1 (79825abcba525fcdf90b791dcacef51065a7a4e7)
C         3.42857110516284   -1.78828120721475   -0.12584638910584
C         2.89062759118514   -0.44334199886478    0.34752174729061
C         2.96968176819016   -0.35600593790893    1.89583517837953
C         2.08007080211615   -1.42172405075233    2.60465238777032
N         2.51193586334349   -1.95153804398572    3.91802262442093
C         2.58414433947183   -3.40349552604843    3.99893477953729
C         3.61289514061380   -1.17465843417478    4.56006385688495
C         4.71453207140816   -1.12509477811942    3.46509967370830
O         4.38514254354131   -0.40278307364436    2.24422046457216
C         3.17706987266314    0.24324995572943    4.73785139056891
C         2.77672234339649    1.17618727134923    3.82735472163204
O         2.54987208846539    2.34764131316766    4.47157155328884
N         3.06362066482128    2.16707316892210    5.76783400749893
N         3.34891892791352    0.87412471335451    5.93181462769116
C         2.54518807049050    1.12391529384530    2.36363042768732
N         1.26157452321565    1.75238028139642    1.99664156073443
H         2.77772592555773   -2.66861612292230   -0.08235167490772
H         4.42877837387008   -1.95449382999216    0.28127678534416
H         3.59595317454477   -1.69158518838412   -1.20261064031473
H         1.87346535667420   -0.29826509583857   -0.03315204354305
H         3.48508838478980    0.40278786540003   -0.01893652780918
H         1.94909031678956   -2.33609900826700    2.01065308358768
H         1.10094368564804   -0.94802879875422    2.73861810252395
H         2.90724440237419   -3.76015142164151    4.98422031004507
H         3.23845277574717   -3.87868583093299    3.26144366655323
H         1.56146688591074   -3.72205486418271    3.77242563465376
H         3.94753959788925   -1.52891346438294    5.54229049849696
H         4.78362409113654   -2.18709348480628    3.20423147719801
H         5.65649931899672   -0.69385009134056    3.82251410927993
H         3.25623192518809    1.85174532686993    1.96297336465945
H         0.53917261291945    1.02739519932088    1.91788665912569
H         1.30837171473700    2.09452101286674    1.04048333187409
