32
 energy: -49.307486975759 gnorm: 0.152457389598 xtb: 6.4.1 (79825abcba525fcdf90b791dcacef51065a7a4e7)
C         3.64322274889488   -1.46826016912453   -0.39182842720089
C         3.27047161040890   -0.20258465247852    0.37069643402246
C         3.08115811229305   -0.34934904708485    1.90489728658625
C         2.24863560996975   -1.60775993302636    2.29591256374644
N         2.18208511404652   -1.83393660074673    3.75761254618216
C         2.10167441949884   -3.22695605922348    4.17351192106542
C         3.33569376469923   -1.15424436788281    4.41721527243725
C         4.61251615374309   -1.18543318973188    3.53191369152348
O         4.46149912159407   -0.31457414434359    2.37451311671433
C         3.14649269524755    0.30570008247582    4.67173725369977
C         2.83453823388097    1.27403167460942    3.76362231971309
O         2.93524231045599    2.50384261503954    4.32594311506940
N         3.44647689688296    2.28627996716120    5.61750979805994
N         3.65667868668283    0.97466309605832    5.74191575079125
C         2.35945264179851    1.00643700780451    2.38466760858305
N         0.91132506086383    0.97098557433526    2.66570595043454
H         2.79314828016062   -2.15739323905685   -0.44614060499856
H         4.43451050960124   -2.01438760501486    0.12720817812000
H         3.86569927057062   -1.34265427244807   -1.45555559283119
H         2.29668444301869    0.17673924389153    0.04140811934836
H         3.97114333540122    0.62842272785373    0.22204611409432
H         2.67606181682845   -2.55707412658502    1.94636710305878
H         1.20196755517570   -1.60936274837277    1.97109364886226
H         1.77897222753146   -3.13295278622215    5.21726061741832
H         3.05534528953574   -3.76029789067224    4.11124746279207
H         1.31710882457562   -3.78668389691304    3.65407261546168
H         3.54711032091563   -1.68669662329784    5.35212187457392
H         4.68899036646931   -2.19081028478894    3.10291979365721
H         5.55267352504975   -0.83075438330100    3.96932244152776
H         2.69579144858244    1.74849671012105    1.65523659247281
H         0.67653819016002    0.06172219949244    3.08017605714920
H         0.41157403661636    1.05560951028508    1.78447015614612
