32
 energy: -49.311816407498 gnorm: 0.144529784296 xtb: 6.4.1 (79825abcba525fcdf90b791dcacef51065a7a4e7)
C         3.48266474660093   -1.45184652223287   -0.36487589238818
C         3.07208158320859   -0.18317491842504    0.37283402102360
C         3.09051319298210   -0.36936437162974    1.91430909224333
C         2.28321461086882   -1.62202826438935    2.37113157716669
N         2.25164298881764   -1.86555767038904    3.83121662380415
C         2.18161294343977   -3.29179454871524    4.11562044926604
C         3.38539941897722   -1.15890146241569    4.49687685942150
C         4.63455641163648   -1.29764586145984    3.58289446173801
O         4.47072924771323   -0.52591746622714    2.35881372981856
C         3.18948826849345    0.30162773837322    4.74282303344644
C         2.73006083163833    1.21741569619059    3.84287125788626
O         2.85574089743125    2.47198689984828    4.34190687009589
N         3.46577133785334    2.30718456070074    5.59790920015073
N         3.65614306272432    1.00404705480602    5.81143131354052
C         2.43529612241889    1.01645608886147    2.40358036139702
N         0.97714137525560    1.21059338408915    2.28778632695711
H         2.66177498281653   -2.16809586233425   -0.24822392205748
H         4.38633398012306   -1.90440943162402    0.05028579173986
H         3.65623394114351   -1.25718324217418   -1.42731086443496
H         2.04950421786678    0.11864432378384    0.12020873676183
H         3.72920984307277    0.63361497720445    0.04934095693663
H         2.83448378887019   -2.46008506959441    1.92410169605970
H         1.30727106174264   -1.49413628438126    1.88925841511967
H         2.05379529606913   -3.24995808378325    5.20387456523788
H         3.04382551617315   -3.87442043907822    3.77657023185147
H         1.21527181130547   -3.54098628653993    3.66534951411027
H         3.56950007335710   -1.53260819911189    5.51112679843183
H         4.80690769308970   -2.36294588137946    3.39289954826012
H         5.52092496045299   -0.95352826724206    4.12782860937035
H         2.89643999437015    1.89675275472259    1.94721416560579
H         0.57530671313280    0.47313723387334    2.87800455596750
H         0.84518984840467    1.03962679778046    1.29438407061047
