32
 energy: -49.314185734601 gnorm: 0.154305946440 xtb: 6.4.1 (79825abcba525fcdf90b791dcacef51065a7a4e7)
C         3.09022199846923   -1.43479718117111   -0.48503452528098
C         2.87701211031443   -0.15440613335431    0.31337789878579
C         3.02899832530282   -0.33707102539587    1.84787630824227
C         2.34222123732490   -1.59863694376506    2.45316407437850
N         2.37312165600657   -1.71623860001429    3.92875436689957
C         2.18422692177205   -3.07523504294663    4.41598002008354
C         3.69812213977322   -1.20482269353044    4.38777257445844
C         4.74458378741166   -1.34950055219182    3.24803866996118
O         4.45308326902561   -0.58255629152904    2.04487548455288
C         3.45509009599768    0.23961803355101    4.68195396422539
C         2.99717499625188    1.22533007200546    3.85834003684477
O         2.84539324705628    2.36807700268700    4.57239373209348
N         3.12525392606348    2.00771580954420    5.90230223025651
N         3.47581297831957    0.72150420366731    5.95491882915553
C         2.63144181306309    1.11105968340524    2.42585590300306
N         1.18511004072435    1.37828391423808    2.30741418633289
H         3.08894137964933   -1.17942952738690   -1.55052339208241
H         2.30348402415318   -2.18188271583201   -0.35581742817795
H         4.11458712741186   -1.79855987316056   -0.36198610097183
H         1.82584162708087    0.12280515943268    0.17636193586686
H         3.53446557038156    0.65425724465570   -0.02930203740350
H         2.72649388340180   -2.51981784126760    1.99508884611504
H         1.30648778312916   -1.43326072393836    2.13546793096760
H         1.36159632930172   -3.56960012738631    3.88563415927888
H         1.83135332204254   -3.07060159164048    5.45197097419709
H         3.00584332954464   -3.78548980098215    4.27763163543243
H         3.93125076130072   -1.69150887835391    5.34225689863645
H         4.91039715294200   -2.41189378168471    3.03710332234134
H         5.64986076608541   -0.89569151113845    3.66702590396247
H         3.02220796882771    1.92836156587696    1.81334841180185
H         0.64093600512722    0.60583896382014    2.70850475215668
H         0.98628816534605    1.37693068769661    1.31044033922432
