32
 energy: -49.314102866322 gnorm: 0.152962452019 xtb: 6.4.1 (79825abcba525fcdf90b791dcacef51065a7a4e7)
C         3.73274989751997   -1.41532251844127   -0.40538204691364
C         2.84749628122650   -0.38498247227202    0.28530421467026
C         3.05060232582966   -0.34763120027284    1.82429883746569
C         2.22489556150754   -1.51189280921839    2.45062770762740
N         2.32182433178364   -1.74169556918622    3.91006156480650
C         2.16752676002759   -3.08526681076006    4.44945933461085
C         3.60429184408318   -1.17393946119655    4.42074765981163
C         4.71627870731355   -1.27228545617988    3.33962772436916
O         4.46516581842390   -0.44974520194692    2.16440538435765
C         3.37014654045078    0.28418598923564    4.64671758941614
C         2.94841330875022    1.22559763820553    3.75478735651764
O         2.72293355974533    2.35453615952560    4.47133297168273
N         3.01675762273819    2.10636472624066    5.82370760832128
N         3.34471211939817    0.81537568621690    5.89982327294981
C         2.50971045050612    1.07507711701182    2.34634401564708
N         1.04124310702010    1.21802724972266    2.32439544087881
H         3.31999265486247   -2.40749007593982   -0.19156951207313
H         4.78771690728426   -1.36294791291078   -0.12593258266522
H         3.69782835159058   -1.13439243614176   -1.46209719486496
H         1.76606828706781   -0.47804103398549    0.13552953871456
H         3.18116880993997    0.61070757490297   -0.03230407329241
H         2.47587376461733   -2.41107830460906    1.87222645266681
H         1.15688684272382   -1.37381892609042    2.24736213716582
H         1.99646677537978   -2.90881583812981    5.51809781189920
H         3.06851543771728   -3.69695860433024    4.34050497771538
H         1.36683576722596   -3.66647089773686    3.98068288576961
H         4.14224672333323   -1.62222683319501    5.26448677297908
H         4.86887400974035   -2.25853669617181    2.88720056821968
H         5.65966514114194   -0.87556328483119    3.73161357735479
H         2.90414471888183    1.82479166794255    1.65482707004656
H         0.67577451574667    0.40488440023980    2.83321922469589
H         0.76647723168261    1.08958586955346    1.35408861027394
