32
 energy: -49.314350985461 gnorm: 0.146561724212 xtb: 6.4.1 (79825abcba525fcdf90b791dcacef51065a7a4e7)
C         3.71268062246246   -1.42397381136025   -0.33604272204215
C         3.01095589088892   -0.21106430167414    0.26291889818730
C         3.13874146905277   -0.31072331886105    1.80722799291688
C         2.44965663587016   -1.61819615296923    2.30246685690806
N         2.29404619831829   -1.55716307206695    3.77359298019333
C         1.66548961602212   -2.74416856068089    4.33562143680234
C         3.62172684871808   -1.20849108321183    4.35973474705551
C         4.80678430257438   -1.22277885739947    3.35452743478550
O         4.53638299763659   -0.34766361485394    2.22234628489187
C         3.41803677462960    0.22820249071074    4.71531628313089
C         2.81519775888152    1.08234591076481    3.83971447150230
O         2.65769254785627    2.29681986826618    4.42197391618482
N         3.20005181571416    2.15374376652277    5.71124287950401
N         3.67439619426634    0.91587294509961    5.86182073770540
C         2.36706840938706    0.95556961500649    2.43190156753377
N         0.90289978295458    0.77782553876108    2.47583461223077
H         3.27985757346260   -2.41297600649977   -0.14890728771241
H         4.62933433065896   -1.43355843186919    0.25846935777855
H         3.97674637042734   -1.23541068184100   -1.38079214509354
H         1.95383849223081   -0.07641041652475    0.00806600761546
H         3.62058926915020    0.62340664503598   -0.10534247226367
H         3.08282226615874   -2.45224511218979    1.97150423620690
H         1.45010506406799   -1.71521624564722    1.86370988524812
H         2.03932664759462   -2.79756774447873    5.36507714907049
H         1.93892031303263   -3.71580856551352    3.91257314447987
H         0.59045747273759   -2.54197275807597    4.29003229154624
H         3.88958585713121   -1.80115030847095    5.24249140646299
H         4.92180739111722   -2.24468519805810    2.97618329071815
H         5.71730527433835   -0.84079533975636    3.82998459289776
H         2.77295992180604    1.78152004483605    1.84122062713965
H         0.71860453550342   -0.05590463285871    3.04557094809696
H         0.51155625740024    0.45250147880860    1.59577590996225
