32
 energy: -49.310627156154 gnorm: 0.157203602243 xtb: 6.4.1 (79825abcba525fcdf90b791dcacef51065a7a4e7)
C         3.21981974802560   -1.54508346471801   -0.31100300576210
C         3.09110618641868   -0.18131814850582    0.35675374716777
C         3.01956575551239   -0.34238251792234    1.89950839217410
C         2.13658980305042   -1.50862189649344    2.43786126758750
N         2.35512179473406   -1.77942985775924    3.87697853813113
C         2.09983616623483   -3.17714855636170    4.19502424671263
C         3.64609011430469   -1.20552937208834    4.35854810551520
C         4.71997007648080   -1.28630845913184    3.23816263388298
O         4.44460884313514   -0.29611520329916    2.20643048786818
C         3.36179920497748    0.22280070053493    4.69181701917949
C         2.94003463196468    1.21379619606728    3.85533811383690
O         2.82795181830446    2.38600552695849    4.52775440624020
N         3.31300769861072    2.10316871642924    5.81677067371972
N         3.64386859328354    0.81252628647222    5.88586218753108
C         2.47835599821675    1.06796830116539    2.45376172366109
N         1.01578102808820    1.24206017159992    2.36499624221621
H         3.55498217735440   -1.42786979667535   -1.34753950178873
H         2.24937845728413   -2.04041164575319   -0.22924610107412
H         4.00593047918203   -2.15533677387988    0.14331950898511
H         2.35298192771293    0.44200716075579   -0.16017661151181
H         4.05514115157791    0.34090033276782    0.31756826914930
H         2.37220557409333   -2.45643011530850    1.93564873972396
H         1.11772230944282   -1.18567580256204    2.19570682623678
H         1.00453310099394   -3.21119660618651    4.23422358005892
H         2.52279199353162   -3.42288946306776    5.17407392739089
H         2.58845151936573   -3.77773538455090    3.42094019548864
H         4.04578036206213   -1.72725174244057    5.23621899854474
H         4.76389840211001   -2.26451301257777    2.74637678299968
H         5.75655779645307   -1.04990156443990    3.50390128625132
H         2.93408219717576    1.81768281416577    1.80100772241926
H         0.58635685470767    0.65421742343072    3.08867159115875
H         0.85161515584434    0.93327474934467    1.41043353921650
