32
 energy: -49.311140320353 gnorm: 0.149334898365 xtb: 6.4.1 (79825abcba525fcdf90b791dcacef51065a7a4e7)
C         3.63951954513560   -1.46199412851725   -0.51977271664175
C         3.19537176145763   -0.26611501542748    0.31385068266000
C         3.11160194574228   -0.39062885745320    1.85937018882226
C         2.38597996724109   -1.68538209436026    2.33547040689034
N         2.30948292550647   -1.67826297042939    3.81406745181367
C         2.03673616238248   -3.04358931193017    4.24001882506850
C         3.51163377812312   -1.09250688530914    4.47708581827885
C         4.74875697123486   -1.11107176837662    3.53677279340690
O         4.49258788536741   -0.34348565402428    2.32600169183817
C         3.21505435422948    0.35178350948971    4.71808825536886
C         2.84630488430790    1.27237120870558    3.78203457575959
O         2.84872638626928    2.50384134603027    4.34971085126151
N         3.16108102452945    2.35641733991480    5.71262667434871
N         3.45136679013201    1.06203066880862    5.85509690457094
C         2.32118626378959    0.87944698419883    2.45211342519293
N         0.86939467768167    0.62989625596253    2.53777810931811
H         2.83950024095546   -1.82389397761582   -1.17511874185126
H         4.13465194798750   -2.19722178677114    0.11903452106390
H         4.36662434156394   -1.06700610752426   -1.23537819852126
H         2.20736278065580   -0.01914533815453   -0.09040553091793
H         3.85939463860903    0.59719081068958    0.18198818585118
H         2.85298125157056   -2.61475459580269    1.98298043611992
H         1.32897700524919   -1.69626587476600    2.04624696741171
H         1.09962892888865   -3.37171348724590    3.77467033298554
H         2.01551813679820   -3.07907292404363    5.33368660443023
H         2.75684847127350   -3.78685471768359    3.88273683802508
H         3.63852870778144   -1.69308744299480    5.38563047089999
H         5.13356015386283   -2.04241874398318    3.10643979964718
H         5.59627699817664   -0.52357943883079    3.90769316251159
H         2.46460422422613    1.73209776391156    1.78258827196741
H         0.64627309630479   -0.18267443698584    3.12396566631438
H         0.52742495744102    0.40134412999099    1.60809566147251
