32
 energy: -49.316375008070 gnorm: 0.144745105969 xtb: 6.4.1 (79825abcba525fcdf90b791dcacef51065a7a4e7)
C         3.92462841183352   -1.13269054900957   -0.46222573551975
C         2.77248152510364   -0.50329030941638    0.31155393441214
C         3.00319649942812   -0.47221631164911    1.84679223649994
C         2.21589035382331   -1.62839070734922    2.53453813049640
N         2.36542055869522   -1.75536038818560    4.00207726334194
C         2.21325407904028   -3.07817656963930    4.59109686818718
C         3.66457139617118   -1.16415422247055    4.43860056203021
C         4.76647109356803   -1.32045220315085    3.35398310183674
O         4.42648643290858   -0.58255655457968    2.14538964471784
C         3.37387554360686    0.28310241995450    4.66873184965610
C         2.78967978617825    1.10803278984037    3.75338515329627
O         2.42321684018213    2.23184042731582    4.41787160339244
N         2.82365378242972    2.12234204475017    5.76118808208521
N         3.41821212902995    0.93244253659632    5.86433836626843
C         2.55084370272560    1.00597714316726    2.29346349024970
N         1.16573325678915    1.46951493652648    2.08390542093836
H         4.14261699576461   -2.19510378914526   -0.30653409909106
H         4.87849408525807   -0.67824388163684   -0.18400100977431
H         3.88028948378084   -0.99938216902701   -1.54714557703215
H         1.86330815810655   -1.10728049541466    0.21574942680717
H         2.61736764244992    0.50483358736547   -0.09247198036640
H         2.68238760023914   -2.49204876068251    2.04204678985671
H         1.16057515280443   -1.57776576504508    2.24338377942679
H         1.24591767760360   -3.47607293360793    4.26197161875375
H         2.20071743916460   -3.03791854299896    5.68473329093993
H         2.96765814374466   -3.75699731930198    4.18032623224074
H         4.05471227474235   -1.67888172168108    5.32465835582352
H         4.83368154725784   -2.39427281669540    3.14647595966803
H         5.68729980191682   -0.91547651869644    3.78882622416949
H         3.15107515530641    1.69980588241268    1.69834175577977
H         0.60131694606876    1.14474774982721    2.87739816021368
H         0.74226375001023    1.30520988552072    1.17441862076061
