32
 energy: -49.309876821548 gnorm: 0.153942905279 xtb: 6.4.1 (79825abcba525fcdf90b791dcacef51065a7a4e7)
C         2.94511061668463   -1.37340834989133   -0.56637028493154
C         3.12995134931765   -0.12006388544062    0.28055571032708
C         3.15635992734754   -0.34353017330996    1.81695313045758
C         2.41440713328099   -1.61012116886486    2.34120300350589
N         2.39854413896598   -1.64926453850292    3.82119214586279
C         1.95058891897155   -2.97600273186759    4.21999444872544
C         3.66257820802152   -1.21591156285788    4.48624349253705
C         4.76531214472228   -1.22987029789299    3.39135077272805
O         4.54715345479615   -0.34431092940890    2.25602302402602
C         3.46646590888925    0.22745579069496    4.81827802090601
C         2.78974025342905    1.04648790148701    3.96336097230412
O         2.76959995127567    2.28753295855474    4.50942184163094
N         3.44826620304029    2.22468854934389    5.73917852541611
N         3.80160878192223    0.95114303602129    5.92147305332727
C         2.43898713049374    0.90835931865599    2.52923335462889
N         0.96915151636014    0.97545588618948    2.41790442821482
H         3.54364461394644   -1.29138233714603   -1.48043242183568
H         1.92871616603053   -1.71473149789731   -0.77668272135279
H         3.53357663802800   -2.18838159766936   -0.13472868057570
H         2.32223514259881    0.56797040664085    0.00709237440204
H         4.13858814340686    0.25732503757680    0.07117455556742
H         2.88596914988910   -2.39929168832030    1.74044366184042
H         1.35565820298092   -1.54641348300950    2.06549309269555
H         0.87546316223918   -3.08292127807741    4.03275745326220
H         2.13693314403774   -3.06559754732255    5.29473493025915
H         2.39544123148711   -3.82081764604587    3.68422416237086
H         4.00184617004834   -1.87526115177707    5.29396131645112
H         4.74581181878544   -2.28695502236149    3.10349873332653
H         5.76104151081582   -0.96186753487030    3.76245305540003
H         2.77357605869847    1.77972503081408    1.95948073994539
H         0.58473474827414    0.27798343131492    3.06553560938782
H         0.56863446282421    0.80717547040332    1.49879801221446
