32
 energy: -49.319243724594 gnorm: 0.147174504712 xtb: 6.4.1 (79825abcba525fcdf90b791dcacef51065a7a4e7)
C         3.58589917448594   -1.36524978466468   -0.43435128416029
C         2.94830675484424   -0.19627693679180    0.30679680282221
C         3.08250977082129   -0.39676690363381    1.84072802100541
C         2.54855546738364   -1.77512610615387    2.33530192677720
N         2.33827707764917   -1.68257456333757    3.79796009630672
C         1.90852405429777   -2.97623626512738    4.30951960338649
C         3.56583872026661   -1.08966532143724    4.40576044735608
C         4.74349743358462   -1.13560888747201    3.39283587841170
O         4.49366223410120   -0.33305724575388    2.20360463789938
C         3.28134413417814    0.33429662502533    4.75706016076275
C         2.84345469030181    1.19880495114217    3.79761627083512
O         2.83702515707697    2.44268975259003    4.33751460252454
N         3.23114190855293    2.27329076601312    5.67647493630587
N         3.53328994929725    0.99668113120069    5.91932232204425
C         2.38151576340479    0.93342813214516    2.41377491928130
N         0.92760465492041    0.77125688856834    2.60653337766894
H         2.91081436431267   -2.20905449969947   -0.61527918937365
H         4.45134082745335   -1.76510571765084    0.09942439422985
H         3.81438996682044   -1.00146011524800   -1.44045126192680
H         1.89445479288513   -0.16058054796283    0.00897022371655
H         3.44169307767756    0.72280957184882   -0.03299869203794
H         3.20443526350481   -2.61584743686902    2.07246743700440
H         1.57712606228055   -2.06428598827672    1.91848614996605
H         1.76166361542483   -2.82862977110120    5.38610169294420
H         2.58676089260680   -3.81081434210991    4.10631348454459
H         0.93132908106451   -3.13848708554010    3.84323613052150
H         3.80218547763801   -1.77986123602286    5.22430948531251
H         4.95403507682943   -2.17604876090694    3.12112658372545
H         5.70635405466692   -0.82527109796153    3.81428212251995
H         2.61478164303918    1.77914178266510    1.76093385893324
H         0.88697799421136   -0.04604770835442    3.22623725997663
H         0.50388886390198    0.55731549352151    1.70754348328055
