32
 energy: -49.313552541866 gnorm: 0.150334418709 xtb: 6.4.1 (79825abcba525fcdf90b791dcacef51065a7a4e7)
C         3.74772668809035   -1.47381171270735   -0.40178779665075
C         2.98647736324088   -0.36530348186536    0.31517179711161
C         3.08416725174348   -0.33877503716512    1.86465705743847
C         2.35061571771762   -1.62044237001686    2.36347128127566
N         2.39347786891306   -1.73260548508399    3.83918601285417
C         2.00773824362418   -3.06654069159429    4.27709374890745
C         3.61251570310211   -1.09171348433970    4.41457667421143
C         4.81306764858775   -1.23128589365924    3.43774423840862
O         4.48448109622523   -0.44143481272349    2.25920961766174
C         3.30948249528900    0.35087525314050    4.65773276430813
C         2.75595184343759    1.28754494519107    3.83559647163053
O         2.59255167549388    2.46722331349126    4.48401011893685
N         3.12766888189759    2.28009193156549    5.77066089659730
N         3.51642888481339    1.00535857478649    5.83327861466193
C         2.41747415619827    1.01739200843874    2.41740059578540
N         0.95222094122758    0.86073069211867    2.34122264500151
H         3.20298922687185   -2.40789925417648   -0.22508927490496
H         4.77781163332796   -1.52426365001203   -0.04099685520723
H         3.75460931090936   -1.19347164153515   -1.45921401327369
H         1.91782682560140   -0.34535068677367    0.07399390875431
H         3.44942998707585    0.58741298770435    0.02948446685926
H         2.85350862980626   -2.45442580135819    1.85588582999775
H         1.36047961990927   -1.71330068033029    1.90300221931371
H         2.12143965551398   -3.87619165082988    3.54639410494671
H         0.97840827920069   -2.98213979437703    4.63927438640029
H         2.66266316161528   -3.34563215832595    5.10886109887385
H         3.93473809634218   -1.58231142718621    5.34071872948484
H         4.98582779821393   -2.29632065321820    3.24663678307963
H         5.66672251310282   -0.77488357934365    3.95154347400169
H         2.69532588120201    1.88046847455322    1.80605500642424
H         0.52135216768444    0.08054902596899    2.85047591274060
H         0.72771756832723    0.91973008909317    1.35147210732669
