32
 energy: -49.318370057374 gnorm: 0.150010107189 xtb: 6.4.1 (79825abcba525fcdf90b791dcacef51065a7a4e7)
C         3.76000570370811   -1.49065761963090   -0.33427682658446
C         2.88004798731530   -0.41594857755466    0.29261788682538
C         2.97075069636076   -0.31818948359672    1.83966921483366
C         2.28022105511141   -1.58302482496885    2.43376095262267
N         2.39168606379487   -1.78956154418777    3.89563298091801
C         2.18944865553871   -3.15820408229628    4.34934986801486
C         3.63042643990886   -1.10409874601947    4.36842600744954
C         4.70636588971723   -1.25018118635574    3.25666108050335
O         4.39937753650570   -0.38643877358763    2.12507595368078
C         3.38064476737799    0.33819159710821    4.66746438998628
C         2.77324918102744    1.24842401270162    3.85370649134723
O         2.58418771063154    2.36022824761016    4.60665272401692
N         3.09915344412452    2.12922172382959    5.89439690642588
N         3.63037991216375    0.90546703371015    5.87945209497051
C         2.41971545470786    1.07613935852727    2.42396484492333
N         0.97785018014128    1.29671043070964    2.20106185398763
H         3.35378960679596   -2.43322672933769    0.04917168485461
H         4.81006762235575   -1.40275824533700   -0.04542710478560
H         3.52265228666037   -1.55046475408646   -1.40052004025141
H         1.85782953758292   -0.52950146979885   -0.08521016294792
H         3.28199993659973    0.54518433147543   -0.05128502506623
H         2.65188598965439   -2.45058475235174    1.87226511372270
H         1.21262629414874   -1.50098291497800    2.20023478735201
H         2.28665775846813   -3.14882676146576    5.44152527334946
H         2.96640134070634   -3.82821791378106    3.96824031460993
H         1.19090211069194   -3.52349307454190    4.08834341680070
H         3.88734205773900   -1.60396861977258    5.30990207984078
H         4.99011859869015   -2.29150584516768    3.06746668569710
H         5.65604794286442   -0.76372264900168    3.50662396837074
H         3.01731731778047    1.81779621098709    1.88669105655076
H         0.45234265752715    0.63335677519663    2.78198697397703
H         0.74736383820212    1.13854675597135    1.22364223339227
