32
 energy: -49.316942095998 gnorm: 0.134450303102 xtb: 6.4.1 (79825abcba525fcdf90b791dcacef51065a7a4e7)
C         3.26241897629830   -1.50148196120776   -0.58269934064475
C         3.12002604316702   -0.22654923825109    0.23985332678980
C         3.25402069911753   -0.33658329970665    1.78293128119218
C         2.54029765668717   -1.63745566827298    2.26033586269930
N         2.38597468805719   -1.59359402745237    3.73220959360655
C         1.73138613849864   -2.71238478700002    4.39535546929986
C         3.63373390795429   -1.13176035444132    4.40872774842252
C         4.85763204442947   -1.20142800516424    3.45362210000134
O         4.63860852706051   -0.44617396842285    2.22789874677604
C         3.28719928048450    0.26918440754543    4.79510038540070
C         2.90315104151821    1.19122367696027    3.86665818469548
O         2.75647314189010    2.37805219075397    4.50595827565754
N         3.04952375302288    2.15455981959054    5.86279699204489
N         3.33925938355666    0.86170257426182    6.01955750306540
C         2.57680499069842    0.96807394573518    2.43748648504805
N         1.11802144500925    0.75698174317388    2.36890457004018
H         2.42451729441895   -2.18569906952122   -0.40877831670316
H         4.23611598604153   -1.98387835852590   -0.46868906553701
H         3.15491405014614   -1.21809831083277   -1.63385324261333
H         2.13181878025835    0.18952243046657    0.01422170295001
H         3.95362742204009    0.41804535322354   -0.06546225468125
H         3.22241697651348   -2.39399510165350    1.84992880228051
H         1.55861883067785   -1.85797051490369    1.82593535645547
H         1.56775019719062   -2.51960517203287    5.46233436205233
H         2.29899657779942   -3.64807293224410    4.40651722114352
H         0.80736973205549   -2.96033693165955    3.86303128788899
H         3.71820136436540   -1.73121888628406    5.32293092011583
H         5.03710928916834   -2.26097362749432    3.23957032790069
H         5.78187995017042   -0.75560217440041    3.83836160433098
H         3.00256515793618    1.80878841735807    1.88271314653568
H         0.80418874154868    0.11239321982680    3.10353705991812
H         0.73375526557211    0.51416106929967    1.45958260346963
