32
 energy: -49.312777688504 gnorm: 0.147315699650 xtb: 6.4.1 (79825abcba525fcdf90b791dcacef51065a7a4e7)
C         3.64334725312889   -1.45124510871739   -0.39135855509081
C         3.22234063266352   -0.15725887180180    0.29469912200695
C         3.12963499466828   -0.38204598972573    1.82833142868647
C         2.56214848343367   -1.74519812250936    2.32769096892529
N         2.41364817605249   -1.62685575498086    3.79605551729376
C         1.87085394403631   -2.86977122131762    4.32565626614864
C         3.66005190924562   -1.11393368994577    4.43735023156418
C         4.83070114937672   -1.14351783802249    3.41572790681204
O         4.49458259979762   -0.24185742429016    2.32265401815080
C         3.32973114690442    0.32182055954631    4.68537079907099
C         2.71782188509105    1.13218058738436    3.77513014906338
O         2.58198767224902    2.34288316579405    4.37055374311254
N         3.07317352618665    2.27289567358176    5.68610572091345
N         3.46534170391219    1.00861666257930    5.85284848360616
C         2.26183517335613    0.84988195552376    2.39266391934202
N         0.80254528682519    0.64232817954271    2.46127353799826
H         2.82511360332711   -2.15636592933634   -0.57514953791656
H         4.39639385332487   -1.97244095987869    0.20451575872279
H         4.17722421931234   -1.18993196264424   -1.30976965816748
H         2.32518183857338    0.34582838534399   -0.08290935698656
H         4.08757902929227    0.49261453153782    0.11403887108118
H         3.27467304171239   -2.54218747267963    2.07631602594941
H         1.64130887025213   -1.91621727518325    1.75862965976096
H         0.80772087422831   -2.81999693415001    4.06173344005778
H         2.11179477746846   -2.86354795559182    5.39323637537531
H         2.18376597167089   -3.72656548897649    3.72014386698638
H         4.02062848641314   -1.64147604134910    5.32838127105854
H         5.02975781746099   -2.14373140618199    3.01495811281448
H         5.69104216038960   -0.73039832580218    3.95439753516038
H         2.30837685836943    1.77235560981573    1.80723910010101
H         0.67455588825576    0.08058666162913    3.31082365922078
H         0.45065168837157    0.17192447668753    1.63158680889326
