32
 energy: -49.313439039444 gnorm: 0.156570577360 xtb: 6.4.1 (79825abcba525fcdf90b791dcacef51065a7a4e7)
C         3.35105334658022   -1.47453503438958   -0.45817738508002
C         2.98892556583014   -0.17585173224390    0.25217973245746
C         3.07723943070929   -0.27520665829053    1.79926760173996
C         2.36885572417925   -1.57192357679514    2.29555619951048
N         2.31369977959721   -1.62072896215228    3.77431498799162
C         1.82765025892458   -2.88635482384336    4.30524664911892
C         3.63610743320855   -1.19787148923149    4.32231114112744
C         4.75698346313448   -1.30309501420978    3.25106328506388
O         4.47370640863906   -0.31663355880166    2.21790036996431
C         3.31897721760634    0.21264041203874    4.69900847851125
C         2.89380031394948    1.20431234247405    3.86506259104598
O         3.06667868814099    2.35450306676860    4.56216751734447
N         3.50859252085275    2.01341017791488    5.85259636226017
N         3.76823352287106    0.70517500641067    5.88587903100864
C         2.37182443812219    0.99366581279262    2.49320309259848
N         0.89703578805662    0.98631440801239    2.54071303565608
H         3.66450762235988   -1.30809158781390   -1.49476978208538
H         2.62873059445781   -2.27377582986504   -0.27581926068945
H         4.28314037370120   -1.74721560138893    0.04545662086971
H         1.95739381068368    0.05902688942360   -0.03304495512787
H         3.66877761200364    0.63489790367778   -0.03781555704472
H         2.72322497496365   -2.46456791713803    1.76293894563582
H         1.31045808547317   -1.47612632029868    2.02789737827281
H         0.87067626067569   -3.19843256487470    3.87028353621861
H         1.70287121280053   -2.71485367721287    5.37894867978530
H         2.53885215122378   -3.71600961279011    4.23801259858351
H         3.87086303361691   -1.69769128393827    5.26958232820290
H         4.81270157100168   -2.32704301765047    2.86493747043354
H         5.69724952256881   -0.91776842649496    3.66148077125605
H         2.74194480839983    1.85435134904788    1.92921966357950
H         0.41052145794998    0.34690910632622    3.17956738606361
H         0.61531022177369    0.84983041676495    1.57350486639154
