32
 energy: -49.316312342743 gnorm: 0.153633067103 xtb: 6.4.1 (79825abcba525fcdf90b791dcacef51065a7a4e7)
C         3.46879142147736   -1.52501280436886   -0.35311433218901
C         2.95057618565687   -0.26569091566548    0.33090572559216
C         3.06902551926932   -0.40205158278750    1.87315316266788
C         2.37218511156653   -1.69286719540885    2.40021398813800
N         2.39426374885395   -1.73977698799250    3.87989763736204
C         2.07635306923737   -3.11065086441184    4.25350036519346
C         3.67257118615979   -1.18251372129531    4.41211747621475
C         4.83504570066197   -1.15039001853243    3.38127893555776
O         4.47744842970925   -0.31659966472511    2.24211453159241
C         3.38532924996734    0.24769527795453    4.73462414993028
C         2.68048140967191    1.09206751747371    3.92847316844745
O         2.48026238493838    2.30349771526076    4.50391225661106
N         3.18078181407752    2.22500662428586    5.72044441024134
N         3.62030232418486    0.97331287775849    5.86216572669950
C         2.45512371966969    0.96088667438235    2.46873525543933
N         1.03311454173368    1.23254447568209    2.18342008412228
H         2.81097914226095   -2.37976671774725   -0.16034619183802
H         4.44140087504114   -1.85485429052906    0.01974749128273
H         3.60515713897007   -1.27640833592624   -1.40970712899119
H         1.94253512126792   -0.07921126438792   -0.05595006809055
H         3.56949069164512    0.56942473437739   -0.02000413863325
H         2.89789342320674   -2.58855975238054    2.04322905824999
H         1.37103188880662   -1.57159877081117    1.97124998788458
H         1.99640701315710   -2.96614668951977    5.33752611844885
H         2.83092976146149   -3.86853156485994    4.02101518398445
H         1.10302932817797   -3.45446525354838    3.88868783946599
H         3.91976398997080   -1.70701206152081    5.34273551016520
H         5.16072758334238   -2.12862096278764    3.01024970081629
H         5.70887196529526   -0.63689565906320    3.79813688831107
H         3.02323184011603    1.77479227801129    2.00976158955161
H         0.45574028121413    0.56692119765711    2.70997002165738
H         0.77472492628699    1.24743821649335    1.20031185259108
