32
 energy: -49.313827012134 gnorm: 0.153594768878 xtb: 6.4.1 (79825abcba525fcdf90b791dcacef51065a7a4e7)
C         3.54825419435837   -1.62693028802472   -0.24973787580871
C         3.00132417766345   -0.35817124340402    0.39325522603964
C         3.01909013712356   -0.26768387995958    1.94330298093847
C         2.24021543083287   -1.52054455925156    2.44657121560713
N         2.36472461562317   -1.88993964918043    3.87492565674305
C         2.27668260033950   -3.30310648263684    4.21426246886958
C         3.54490362418180   -1.17706133894478    4.44663556517388
C         4.72973608830926   -1.17027518512547    3.44108446568319
O         4.44082209137256   -0.39536182371375    2.24241199818574
C         3.24086899642026    0.26836524111578    4.67095946121063
C         2.70342994374279    1.19445262354351    3.82646210540891
O         2.70969353962862    2.38633831918848    4.47310744126893
N         3.25014595449004    2.16053137815817    5.75129413158234
N         3.51075449804843    0.85729887353971    5.86820724378303
C         2.47248496144385    1.18673491960830    2.36173204842167
N         1.04300958831048    1.39749619802462    2.06257882085291
H         2.83616152273785   -2.45876706673884   -0.21162746729375
H         4.45770030894082   -1.96095947165421    0.25535890974440
H         3.64913582325869   -1.42538480559485   -1.32024730758390
H         2.00918871473679   -0.21090475382796   -0.04783281180306
H         3.61737146745864    0.44757605882173   -0.02491707166911
H         2.63276665897432   -2.34235259855382    1.83288749339618
H         1.15603476793505   -1.44645911446352    2.30484066819659
H         1.85872685506866   -3.32459353590252    5.22778896558821
H         3.18070159709675   -3.91996120577474    4.20662058990705
H         1.53498078647588   -3.66491173662188    3.49479669757993
H         3.89633013132674   -1.55599277851147    5.41367387505306
H         4.92091452174578   -2.23083418781721    3.24276004257666
H         5.60907358610072   -0.74902431061910    3.94141697283761
H         3.09470503759364    1.99098240670554    1.95939618311762
H         0.35647578309058    0.85156022946299    2.59577247284674
H         0.80593745439935    1.44684227095282    1.07523360244703
