32
 energy: -49.310974359176 gnorm: 0.151202275671 xtb: 6.4.1 (79825abcba525fcdf90b791dcacef51065a7a4e7)
C         3.77298719005181   -1.48129886225827   -0.53746702608681
C         3.10736630781940   -0.37877967633959    0.27722454744886
C         3.11183064049826   -0.36225312644896    1.82991851524931
C         2.36016686234616   -1.62782772837190    2.34266320048523
N         2.40063843902121   -1.64982150760852    3.82253820311325
C         1.73985300879518   -2.85211398442283    4.31018233234254
C         3.67034471254426   -1.13539293109818    4.41505777293789
C         4.82395849652518   -1.17275010261129    3.37448739091312
O         4.52068401664830   -0.35679649756529    2.20700205598856
C         3.37057749494762    0.30224732234046    4.68955077377271
C         2.86921660442990    1.23070913066296    3.82569296950472
O         2.67302135561054    2.36781360175513    4.53793013034618
N         3.11965905038678    2.12672599788806    5.84912437170206
N         3.54945636278190    0.86544961582773    5.91588221228959
C         2.40205304698758    0.94282892244970    2.44811811609196
N         0.92830371443620    1.00973317074422    2.41812584981086
H         3.20151091414607   -2.37511226891962   -0.26361804829344
H         4.75839721167469   -1.78607368076492   -0.17709237452355
H         3.73376595707293   -1.24903917062460   -1.60578591837394
H         2.06454825479245   -0.43720592370179   -0.05397891693330
H         3.47454827217278    0.59426398671085   -0.07202390058790
H         2.96576874267607   -2.47833828429192    2.00214772095624
H         1.33255926373667   -1.67198021406567    1.96438143429135
H         2.05194320348041   -3.06203523762244    5.34019079661600
H         1.94875490913959   -3.80126777621019    3.80690748228433
H         0.67290342418245   -2.62677305932506    4.21273659461994
H         3.91232718052545   -1.61513499675030    5.37085312605929
H         4.91429630824606   -2.23318777970889    3.11376113017077
H         5.76803359208566   -0.68764928265344    3.64728541655496
H         2.79796167598218    1.72514783998878    1.79460494227761
H         0.49346453812572    0.43239205741218    3.14700331015064
H         0.59467061533713    0.52607796341084    1.58851424605742
