32
 energy: -49.317085778306 gnorm: 0.144633771299 xtb: 6.4.1 (79825abcba525fcdf90b791dcacef51065a7a4e7)
C         3.49425980773812   -1.30424445560299   -0.48562476609528
C         2.99958834632563   -0.08623651711003    0.28514037395264
C         3.07577086183943   -0.32299592193656    1.81788068252926
C         2.26803482634395   -1.58022150448324    2.26119881308880
N         2.30686796294088   -1.62606341133027    3.74057104664089
C         1.78405420636910   -2.85130033577298    4.32827984966863
C         3.59913593358700   -1.21531888831712    4.36443212068640
C         4.75702032463271   -1.35890108385764    3.33793569261693
O         4.45857527404858   -0.41150478064933    2.27297160967688
C         3.40501060293365    0.23026113435519    4.68789776075155
C         2.89767347401795    1.14893904289648    3.81709680645451
O         3.04949174301573    2.36805664983027    4.39110412631207
N         3.57287675841964    2.17180137054411    5.68121683125327
N         3.73109441327035    0.85797034552283    5.85096858633507
C         2.33384967287427    0.95243192281814    2.45977703492881
N         0.88402502906107    0.77431037848737    2.66856890370451
H         3.94809614335166   -1.00157878704737   -1.43583888824559
H         2.69408104878172   -2.00303681023191   -0.74095532474955
H         4.28956559318401   -1.81812054486435    0.06228781967259
H         1.93360315596048    0.11160418138467    0.12666799946681
H         3.61206751658805    0.81995274284948    0.19969246721347
H         2.79743521632612   -2.51920452249620    2.05115417248826
H         1.23761682004125   -1.63173397776629    1.89159211503204
H         0.69004226794373   -2.85528613475786    4.25407303574752
H         1.95402669879714   -2.83478414144250    5.40932335865362
H         2.17191070184383   -3.76761086838312    3.87155458873610
H         3.82083680100190   -1.80400748296299    5.26251183721690
H         4.90464596660289   -2.37818125662033    2.96384778558816
H         5.75911768242080   -1.08840584089968    3.68957834576575
H         2.47287135247171    1.89854638590483    1.92931837525209
H         0.74929292420658    0.02752180339542    3.35981727473589
H         0.49670549098164    0.48426609551111    1.77450698799467
