32
 energy: -49.310662224778 gnorm: 0.162159467556 xtb: 6.4.1 (79825abcba525fcdf90b791dcacef51065a7a4e7)
C         3.47158233149952    0.13791958217724   -0.56469016616954
C         3.16776116161137   -1.02892844523905    0.36723282356479
C         3.06871956826780   -0.70284960700182    1.88216350637271
C         2.09516522880274   -1.74925216536106    2.50411065354465
N         2.10802360616783   -1.61622558317720    3.97865814187485
C         1.50921453573415   -2.79250558385367    4.59325919156055
C         3.46606790732987   -1.29308511760738    4.50701990360248
C         4.62821930760643   -1.64788763426736    3.53824421366468
O         4.42861356688820   -0.75300810103389    2.40681773396695
C         3.30862869905855    0.18586216950533    4.64824350864504
C         3.13253756716354    1.07575447373921    3.63004020414626
O         3.20174450249446    2.27020593639157    4.26822280058455
N         3.46559452514747    2.09108409506093    5.63757933902456
N         3.57904646615041    0.77785281320895    5.84386241826754
C         2.72888769518550    0.83233162789608    2.22410941888741
N         1.33995359166830    1.29533430305363    2.04025245983540
H         3.50613337055351   -0.07664552686925   -1.63858440663135
H         4.47257549008274    0.50909595682735   -0.33224385166250
H         2.68965942922823    0.88675516377250   -0.40775077102847
H         3.89400920584317   -1.82620948857874    0.17362092837144
H         2.16604830789547   -1.39653743965911    0.11219158478506
H         2.42142507474016   -2.72934192327130    2.13121494598099
H         1.04233507143257   -1.50314438838665    2.32521531601236
H         0.43865663928623   -2.83385702656271    4.35963447107801
H         1.66205195498142   -2.75343023449017    5.67627920262227
H         1.99288420837723   -3.71045942708974    4.24385969152820
H         3.55466258650605   -1.74457938781585    5.50228701872953
H         4.58499998994232   -2.71452959523690    3.29111229439699
H         5.62010421939098   -1.37040406429005    3.91265914898917
H         3.40799334416706    1.47535635727547    1.65738134396202
H         0.72115147394797    0.73670647289153    2.63915905472792
H         0.98888679124695    0.93956115565734    1.15500312480531
