32
 energy: -49.313809628643 gnorm: 0.155808615753 xtb: 6.4.1 (79825abcba525fcdf90b791dcacef51065a7a4e7)
C         3.60208557685452   -1.67311314396884   -0.25166000477842
C         2.96715270906646   -0.40077989109622    0.29638236071095
C         3.03823507361192   -0.29877721892407    1.84418544271885
C         2.25332986669091   -1.49561765937365    2.46150334993788
N         2.40802716612694   -1.69529601834930    3.92038956664042
C         2.24596625752786   -3.08052435503329    4.33850451148208
C         3.69121096582181   -1.14226947981613    4.44524307979715
C         4.71717781300382   -1.24577508020653    3.28262290997661
O         4.45413448903454   -0.31547604765274    2.19352712647615
C         3.41080956128982    0.30486059615617    4.68856564166843
C         2.84789880832290    1.21375595854425    3.84198719905945
O         2.58005336829960    2.33401371142551    4.55757249037399
N         2.88737997527692    2.04864257961375    5.89956819643662
N         3.39405178351650    0.81547338911801    5.95034098598355
C         2.49486436502013    1.10787443962601    2.40567767363778
N         1.07898677129502    1.36467238165597    2.07909191835483
H         2.87937404565835   -2.49178161555431   -0.16249285942183
H         4.56400735039289   -1.89851169689147    0.21491527071466
H         3.73843370839145   -1.66184533483876   -1.33704949753251
H         1.91905481968021   -0.28173391955274   -0.00009314488872
H         3.48759978515361    0.47350389369526   -0.11395134811961
H         2.55219399025890   -2.35121019680203    1.84124995290805
H         1.19657976039879   -1.33073760810446    2.22251024885139
H         2.49506423981021   -3.28644485858732    5.38632682514126
H         2.88242094335222   -3.81315017639577    3.83253678369526
H         1.25563657303360   -3.29499198905728    3.92388857802209
H         4.05608041659263   -1.69568260230468    5.31865988330523
H         4.62379439291078   -2.26501055523141    2.89133560361485
H         5.74740917706500   -1.06055976174310    3.60718103189821
H         3.13987340517219    1.87328959649962    1.96528128547110
H         0.53113113335571    0.61541478650670    2.51742681257957
H         0.93763471434550    1.58590946133598    1.09697045864882
