32
 energy: -49.310599080792 gnorm: 0.145121313767 xtb: 6.4.1 (79825abcba525fcdf90b791dcacef51065a7a4e7)
C         3.00578058063460   -1.73910603938772   -0.29299665098951
C         2.73772768832365   -0.38657641541478    0.35595122955720
C         3.05918133596661   -0.41050046889285    1.87491364488340
C         2.16167983766633   -1.45172554043820    2.60971023333509
N         2.58452564610756   -1.80306166132769    3.98445240579008
C         2.63781564014311   -3.24917296872781    4.14527418016900
C         3.77686902882550   -1.06584624814339    4.49699596412386
C         4.90920292565128   -0.99019312121999    3.43534463012338
O         4.43558615260595   -0.85374637820672    2.06499900761083
C         3.17773444996943    0.25523435262072    4.85448730002827
C         2.73878509717810    1.13062787143707    3.90545410540888
O         2.34118175425070    2.26945361752855    4.52494456278679
N         2.49343756088711    2.02107824947093    5.90043234841123
N         3.05746144604164    0.82607903486747    6.08442794814049
C         2.83345908589786    1.08420600156447    2.42636279306166
N         1.68546686218870    1.78547936919174    1.82002763543805
H         2.30988823711476   -2.53127155107587    0.00480941129133
H         4.05744341026918   -2.03084345204437   -0.24117900067643
H         2.85237805947565   -1.51811693233138   -1.35338318955331
H         1.67863297208908   -0.14462551849468    0.21327326971492
H         3.35065591829409    0.33764149906126   -0.19490123959550
H         2.35624631265597   -2.30387183325245    1.94483188363407
H         1.14842345842150   -1.03858914799742    2.67015645609662
H         3.04081644354918   -3.40764994584466    5.15267681082407
H         3.20200516666868   -3.81892875859373    3.40036679191126
H         1.65317552299537   -3.70626027529646    4.00311000860404
H         4.13532380113868   -1.62536176146480    5.36918016252659
H         5.42844217043282   -1.95510241566341    3.43814197809176
H         5.70241890350407   -0.24828533637568    3.58163403312375
H         3.74240217937288    1.57054782865987    2.06147915045505
H         0.89646005266199    1.13574069642734    1.72527461612945
H         1.98967372166031    2.11424353127646    0.90741537968932
