32
 energy: -49.316940673075 gnorm: 0.145396504419 xtb: 6.4.1 (79825abcba525fcdf90b791dcacef51065a7a4e7)
C         3.85305826725422   -1.29654506070954   -0.45194943497494
C         3.18011723439055   -0.14161646635071    0.27990601178279
C         3.06587718754779   -0.38002171245014    1.81002489030593
C         2.39046987363018   -1.68852764245230    2.32112352514837
N         2.23473049248292   -1.68230681687753    3.79348837184604
C         1.72517610253794   -2.91296799828795    4.38150942878645
C         3.48133236721747   -1.23275927304189    4.48033696679664
C         4.67020412414466   -1.20141086203289    3.48003287683470
O         4.42120711258469   -0.32279974190384    2.34565168236021
C         3.31100150772482    0.23731946441711    4.68496392261356
C         2.79729171587294    1.09818803005168    3.76048464114132
O         2.83209792268155    2.35517009245800    4.26799381849763
N         3.45161156452452    2.24006637873295    5.52489189967354
N         3.75872060342965    0.96095349968660    5.74750082000462
C         2.27127524604416    0.89367830387607    2.38924004027610
N         0.82651075294982    0.75789267380151    2.65669219870810
H         3.10124593458531   -2.08830376884705   -0.54347630288034
H         4.84555242127594   -1.57286105255711   -0.08808775779160
H         4.07510679237750   -1.01240498042292   -1.48478388200913
H         2.19218957623926   -0.00484988049481   -0.17382595370366
H         3.72101668096720    0.80131259802419    0.13183975715918
H         2.99190479912309   -2.51574772971909    1.92105405043055
H         1.34811662984705   -1.77453894734951    1.99382291603605
H         1.35872232411738   -2.65910667754014    5.38333312463847
H         2.42207735642471   -3.75586197371537    4.42245925514176
H         0.85540085636592   -3.27911310214219    3.82645591548305
H         3.72767904275051   -1.79294784667423    5.39014727262564
H         5.02396763640294   -2.16327290305615    3.09229590530510
H         5.54691300197096   -0.84675416036742    4.03376523435885
H         2.62540569707612    1.75991419789129    1.82349009513465
H         0.72040387174672    0.02182318015934    3.36423248578013
H         0.38254520437577    0.58603748516479    1.75844434485335
