32
 energy: -49.315630832033 gnorm: 0.139665299001 xtb: 6.4.1 (79825abcba525fcdf90b791dcacef51065a7a4e7)
C         3.75315928736642   -0.89589692135239   -0.57012118465504
C         2.61791410134565   -0.39663946092345    0.31547603871512
C         2.95822278801591   -0.46651977163499    1.82890207219660
C         2.15597113273935   -1.67361311612217    2.40240232874647
N         2.21456599758501   -1.72880529261205    3.88080421854883
C         1.71815907041320   -2.96857668795842    4.46088043536924
C         3.54847404360629   -1.21437907140809    4.30966920773376
C         4.71844433180696   -1.35855416572096    3.29705374166790
O         4.38543933569944   -0.62609025269603    2.08322427163107
C         3.42845931130416    0.22357320914211    4.69684612047655
C         3.01644838052154    1.20806172443267    3.84791519520646
O         3.09721672961118    2.38690629471008    4.51318420802107
N         3.61642951053779    2.11610688144073    5.79143479526825
N         3.81674554545161    0.79927046698479    5.86769612012778
C         2.51885030140004    0.93913932207653    2.47718321823532
N         1.05564438991074    1.12612731760302    2.51428798868866
H         3.56414588699608   -0.84558543179285   -1.64818588143696
H         3.94224073190259   -1.95586893467275   -0.38438472527471
H         4.70222834457969   -0.36885977200093   -0.43488844145101
H         1.79819666517267   -1.10135157554165    0.13652628276652
H         2.46828946625171    0.63328736166203   -0.03161796908113
H         2.55630053074341   -2.54487472867407    1.86694719371523
H         1.12311736775658   -1.55501396287283    2.05574507337320
H         0.68721838079359   -3.08665273423403    4.10647389174948
H         1.79830921236688   -2.89195065457200    5.54969763978043
H         2.32780773590959   -3.84046107484435    4.20242011905135
H         3.74159880369711   -1.60521667258523    5.31575147049730
H         4.87485102398448   -2.40361086619013    3.00712167608723
H         5.67607776860013   -0.97173446234460    3.66356167085276
H         2.85966479033586    1.78201500403406    1.86952207872519
H         0.59762952018683    0.43401922377097    3.11834012951838
H         0.72707509062237    0.92114044595314    1.57433510838225
