32
 energy: -49.322769547883 gnorm: 0.141636396882 xtb: 6.4.1 (79825abcba525fcdf90b791dcacef51065a7a4e7)
C         3.78577640143031   -1.38715012585333   -0.43661967610947
C         3.17131925390870   -0.21257252739013    0.31513291730411
C         3.10350589021381   -0.36847204550406    1.85858628968618
C         2.51847832511550   -1.73710786595158    2.32136415631646
N         2.39080807088020   -1.67544897296236    3.79515185683336
C         1.84153213569631   -2.89389579824801    4.37275437023356
C         3.63489632656839   -1.16379197706262    4.44192983394903
C         4.77165031795985   -1.16629359411282    3.38231143994047
O         4.48608207795530   -0.23197615087201    2.30236727543923
C         3.27627650626132    0.26019375949793    4.71701657302648
C         2.82816222543208    1.12537961997042    3.76291942099306
O         2.73097736743711    2.35938323557339    4.31660805463448
N         3.22166306575410    2.26376488042465    5.63073265888139
N         3.55335395494429    0.98754641373671    5.83382875880027
C         2.21424580050943    0.83801761885110    2.44407182603294
N         0.74587178880855    0.77673458122426    2.57611329306225
H         3.19013156017336   -2.29934378098129   -0.32004026070846
H         4.81821740305395   -1.54979125689701   -0.11817983241793
H         3.75864228847632   -1.20494254402422   -1.51497595465113
H         2.16454332106822   -0.01528387093078   -0.06965047596202
H         3.79230854186279    0.64854401697451    0.03861592537130
H         3.12611308968782   -2.56036180598153    1.92248376523418
H         1.50353646797307   -1.78870468460013    1.91117552598688
H         2.22987550259629   -3.83489429075431    3.96520569410160
H         0.74875183857971   -2.83949392259316    4.34648348753896
H         2.10037358406049   -2.90195054033793    5.43651742919755
H         3.84651851519607   -1.68406565770019    5.38362195965359
H         5.00693909164317   -2.14380365729389    2.94667347736249
H         5.67916868408660   -0.88801829095711    3.93002726347995
H         2.36013612617978    1.69939687756017    1.78635777463897
H         0.38392438946983   -0.06039748013506    3.04714854476937
H         0.43302296990919    0.72351273627155    1.61030696144512
