32
 energy: -49.311627409284 gnorm: 0.153609732932 xtb: 6.4.1 (79825abcba525fcdf90b791dcacef51065a7a4e7)
C         3.65701671554383   -1.41918091886886   -0.23968609646628
C         2.93686792614903   -0.19303372865133    0.30828369243281
C         2.88929954087574   -0.31723845434144    1.85536549029919
C         2.07978104283579   -1.53111698020870    2.40378445729097
N         2.27771204095756   -1.68939353667462    3.86252485892416
C         1.94695198885614   -3.05117430022047    4.25761008129174
C         3.61045722014791   -1.23003036551982    4.35308168023684
C         4.65234490903242   -1.38888685142119    3.21104766217044
O         4.31258172642702   -0.46643134588932    2.13661081978604
C         3.39374867550355    0.20237916801213    4.71812499446132
C         2.95544107059012    1.15367907564835    3.84487285071506
O         3.11792434560607    2.35718057960430    4.44816735340790
N         3.50937512941125    2.08858468039315    5.77159522514353
N         3.67223201366061    0.77299368006402    5.92225512607800
C         2.43517704564961    1.10430908987178    2.45717070421995
N         0.97137048780350    1.25746853418306    2.35169383398487
H         3.87557172416780   -1.13394014628679   -1.27474755192375
H         2.96819531852920   -2.26501479164714   -0.30198087928672
H         4.64196029035771   -1.66744401248738    0.16656471302180
H         1.92688312433814   -0.15441033533318   -0.11482125116815
H         3.46101044512224    0.75849474822578    0.15505434384111
H         2.37458975819073   -2.45484480521180    1.88814179109287
H         0.99691024458448   -1.36278833872396    2.39482759336214
H         0.85646997650116   -2.99464917295419    4.35780266316798
H         2.46999077634786   -3.32836890914146    5.17815996045775
H         2.19865437941034   -3.86119926398528    3.56539545827170
H         3.96534611267461   -1.69518121426528    5.28041187366146
H         4.75896306694005   -2.42902453997215    2.88330794263484
H         5.59261844042500   -0.97895694940297    3.59687472079734
H         2.93710871207440    1.94076887292714    1.96295856672234
H         0.52735706348647    0.62136642181644    3.02392624042756
H         0.68732604221404    0.87607273516270    1.45317014625196
