32
 energy: -49.320353247361 gnorm: 0.149550509593 xtb: 6.4.1 (79825abcba525fcdf90b791dcacef51065a7a4e7)
C         3.76894576830776   -1.52005770814978   -0.30700045948049
C         3.00207085224770   -0.34773323981189    0.29289977535818
C         3.01924960128430   -0.40564262783541    1.84451281313321
C         2.23725268370881   -1.61433148836652    2.44212193314880
N         2.36687277287520   -1.78916202576335    3.90663024673617
C         2.31107576823903   -3.17937578142917    4.33573838090916
C         3.58560762754542   -1.14499057634637    4.47899264306516
C         4.75191219115936   -1.10177400190560    3.45289663403296
O         4.43392638223895   -0.43483800637758    2.19796273134347
C         3.21519712292073    0.28723896653465    4.68763315045010
C         2.82372955346112    1.23222414479184    3.78574041272204
O         2.60253321942246    2.40790568205401    4.42419638596152
N         2.85206981167330    2.14004208441346    5.78170122382585
N         3.35535273210670    0.90922988936529    5.89036626964340
C         2.45689686112457    1.00875204806873    2.36647184420108
N         1.01540999999247    1.27573000259297    2.19868863219666
H         3.42518500004693   -2.51779733878092   -0.01233969644635
H         4.81764108748967   -1.41941187596871   -0.01734715054389
H         3.69943873074494   -1.45366133416794   -1.39674741261848
H         1.99288606223961   -0.24250367459838   -0.12068413293947
H         3.54876389187552    0.56362524530470    0.02057004781576
H         2.60962443287433   -2.51880464653535    1.94278215628718
H         1.16192438576486   -1.54406872033890    2.24273259897915
H         1.24184607735516   -3.41179309845956    4.26422111154608
H         2.62433415616722   -3.27083832828852    5.38040210052462
H         2.98174035473550   -3.86497311471030    3.80770341405840
H         3.93440712043625   -1.62141776236639    5.40290214280958
H         5.01296477107436   -2.11482366935084    3.12693791355846
H         5.68932830593525   -0.62429042953681    3.75994681597792
H         2.95278280109710    1.79190035231891    1.78628061711943
H         0.39844341304481    0.51399301624572    2.50328543610511
H         0.82242077894988    1.25115085084182    1.20087109208712
