32
 energy: -49.320492802833 gnorm: 0.140840680144 xtb: 6.4.1 (79825abcba525fcdf90b791dcacef51065a7a4e7)
C         3.59961885540690   -1.44878305322966   -0.54234765890614
C         3.23949092918867   -0.21645357047791    0.27862371754877
C         3.11356667633164   -0.33434404974449    1.82180113220148
C         2.40387545557758   -1.62769695846936    2.32495243474488
N         2.22660262706323   -1.77570194282076    3.78742313540729
C         1.90357379181571   -3.10774015857816    4.27861345669879
C         3.40468955145308   -1.13187087060080    4.43969833906489
C         4.65281211001844   -1.18062700426802    3.51513360144308
O         4.46541576364109   -0.30294736135252    2.36825141074305
C         3.24109384158329    0.32050058214280    4.74932693559136
C         2.80924744355100    1.22038083571071    3.82014525844943
O         2.94822110094547    2.45726579763814    4.35827428242905
N         3.42600489468059    2.28881770573401    5.66983315987477
N         3.60119596278777    0.98340487218615    5.88244988263752
C         2.36175305960829    0.95061732414949    2.43241123650906
N         0.89785987890962    0.81097672083241    2.55419006418926
H         2.87658520032734   -2.25093073996812   -0.35724708271499
H         4.63864301210491   -1.70121712938579   -0.31763376851549
H         3.53382142081845   -1.15746615789793   -1.59477024097779
H         2.31417765379148    0.16311712884659   -0.16892547130023
H         4.06056774920895    0.49153154646233    0.11069225210876
H         2.91559112190378   -2.52422093422510    1.95016654691331
H         1.37253752367335   -1.68531695263689    1.95882961353085
H         1.62017401510821   -3.14673819320201    5.33717303146460
H         2.72488624938751   -3.81519877023755    4.12772721638538
H         1.04544966990669   -3.51577370075956    3.73475020599851
H         3.61430191841188   -1.79401392881077    5.28815690615619
H         4.91374413984625   -2.15503099008913    3.08721011028880
H         5.48665884126368   -0.69266960597338    4.03245029521790
H         2.63358089921394    1.85956546263760    1.88856483946053
H         0.56108854666806    0.03408965083072    3.13445015426824
H         0.45331141860744    0.79152798595780    1.64014015876016
