32
 energy: -49.313672250142 gnorm: 0.152811028528 xtb: 6.4.1 (79825abcba525fcdf90b791dcacef51065a7a4e7)
C         3.54120873526306   -1.58107608528332   -0.41447246972380
C         2.94387653282633   -0.38246729079109    0.31275052322499
C         3.04723524407984   -0.34325502093254    1.86159880634897
C         2.25635283135161   -1.57678300100649    2.39310453889386
N         2.41588409312659   -1.78765231505433    3.84989402212531
C         2.18452613259124   -3.13568942164086    4.34910423169142
C         3.64568021775880   -1.14971590476400    4.40532974317001
C         4.80970098984883   -1.23945651479253    3.37965470312764
O         4.45431060306391   -0.40497449230884    2.24030614864965
C         3.25387032315501    0.25867527677186    4.71344588181992
C         2.87859484785345    1.21991675045574    3.82190928221333
O         2.69181277610105    2.36579725827522    4.52251705201269
N         3.09511969527682    2.12106587607902    5.84701276030296
N         3.28819924875700    0.80574456762893    5.95948760414057
C         2.50380699064680    1.07441284794258    2.39460694952335
N         1.08933900508715    1.38515449426438    2.11170635047736
H         2.98782619208927   -2.48693024419101   -0.14303775177656
H         4.52211563751233   -1.77420684061361    0.02633662255518
H         3.52704015963201   -1.40516424639377   -1.49412167354550
H         1.87119794470529   -0.26591749472403    0.12207894825937
H         3.48895890954230    0.52772238503082    0.03337441837277
H         2.67009814138933   -2.52499359439458    2.02461557261931
H         1.21137584536568   -1.44029359418341    2.09240925260228
H         1.95040328161822   -2.98581056450591    5.40981506860390
H         3.12941119483272   -3.67010051269098    4.20976469025929
H         1.36619940013672   -3.65222436227686    3.83706064837553
H         3.94720405247593   -1.61760812284492    5.35000586213289
H         4.94893578299137   -2.25928594702796    3.00385054368854
H         5.77646946687925   -0.83890653161259    3.70513553070628
H         2.99837678708455    1.91061167794134    1.89259277826675
H         0.49099633697710    0.74469963387042    2.64600387448684
H         0.86359707816234    1.55346811276106    1.13487477892435
