32
 energy: -49.310190265148 gnorm: 0.153009764086 xtb: 6.4.1 (79825abcba525fcdf90b791dcacef51065a7a4e7)
C         3.68030486566963   -0.01853329146790   -0.57431364634848
C         2.99768201609252   -1.01804331704671    0.35160634091535
C         2.99680202847822   -0.62234411941064    1.85312988870885
C         2.02052750454170   -1.60315669644197    2.57040204065108
N         2.04714457835562   -1.70522959398761    4.04723119089632
C         1.79720769369328   -3.08960568076795    4.42269862134705
C         3.37198614343761   -1.28504093965961    4.59138791600326
C         4.54522145106450   -1.57349536840659    3.61398319497521
O         4.33254131218814   -0.76618017683944    2.42075771972342
C         3.20510799153030    0.19271424861497    4.73424297990939
C         3.12284247600082    1.03641323172798    3.66603945151305
O         3.27252055435752    2.30347884516536    4.12530206062485
N         3.56465780664734    2.19575942212230    5.49639328860502
N         3.54118332891707    0.90758611094273    5.84288848143809
C         2.64576388943735    0.89178872933362    2.26950479110893
N         1.26230392420941    1.39595737714231    2.17376923133736
H         3.72928554020451   -0.31871720451972   -1.62691580726582
H         4.74723528522495    0.06024412998807   -0.35240355732627
H         3.21737287876741    0.96956303664146   -0.49590608683054
H         3.53287639488842   -1.97394020459927    0.37177983763468
H         1.98272972176886   -1.21236733851547   -0.01679703834734
H         2.13690244751556   -2.61349807831345    2.15598704590982
H         0.99938684102368   -1.29394890378330    2.32002991554670
H         0.97318783270156   -3.52915988148880    3.84809612131093
H         1.70563870185164   -3.07904855581795    5.51325910599139
H         2.53621653468184   -3.87410360197124    4.23012509869569
H         3.55278228844266   -1.66982202722191    5.60208519545286
H         4.53703415117661   -2.65652766111283    3.44772680530340
H         5.49305918656607   -1.28358307564553    4.08150200671251
H         3.27698323796381    1.60429862118615    1.73123183227364
H         0.67646999602008    0.66913405670070    2.60061427786299
H         1.01890942389511    1.46817753913301    1.18937490910027
