32
 energy: -49.317056306586 gnorm: 0.144751556804 xtb: 6.4.1 (79825abcba525fcdf90b791dcacef51065a7a4e7)
C         4.04564777955653   -1.13020642814220   -0.46539181463121
C         2.85533615453179   -0.53265773041612    0.27515924630028
C         2.96300529778528   -0.49730161200229    1.82380669881043
C         2.29427965957512   -1.74853981455639    2.46940224495941
N         2.32562155716758   -1.68568092909842    3.94832690511153
C         1.99878273689973   -3.01542762394337    4.44319204219679
C         3.63066299360468   -1.15268018085927    4.43888503514522
C         4.72103586764370   -1.25636747512514    3.33645908287201
O         4.35723659409129   -0.37658132493075    2.23445902497913
C         3.32649600154712    0.28216582403726    4.72299007150336
C         2.91772015250364    1.16516434880626    3.76754761283865
O         2.73204786336834    2.37641998921862    4.34820802509273
N         3.03650590685883    2.22409908113583    5.71237166795986
N         3.34640625517930    0.94209581969741    5.91344344986700
C         2.42676226298616    0.90943261839714    2.39190560660077
N         0.96972757601078    1.14258969689027    2.39118780241517
H         4.18521589185385   -2.15097777652954   -0.09252803411244
H         4.96090761062833   -0.54584863233049   -0.34449557120896
H         3.99942620862655   -1.12356421518188   -1.55837286341512
H         1.90364660670289   -0.99306131091204   -0.01275463183830
H         2.93557018897489    0.51085257334120   -0.05386931878896
H         2.87849460606564   -2.57421497372382    2.04158679018787
H         1.26711523348691   -1.71874727632843    2.08852225351484
H         1.12409678505269   -3.43506824634040    3.93210409061105
H         1.87071140457592   -2.95577538722318    5.52848363807586
H         2.79270958128607   -3.69204336128867    4.11073613353203
H         3.88569622482832   -1.61719926681881    5.39879794583770
H         4.84483334649588   -2.28620138783946    2.98321205248410
H         5.66947741899674   -0.88373784149537    3.73972715063531
H         2.94253170165415    1.61391944797174    1.73347854432322
H         0.50744532262904    0.44025492319191    2.97999269950266
H         0.60107380579042    1.08774431831071    1.44536794736306
