32
 energy: -49.315588682499 gnorm: 0.155448452727 xtb: 6.4.1 (79825abcba525fcdf90b791dcacef51065a7a4e7)
C         3.90588636376069   -1.36719378351209   -0.34730825410831
C         3.14395095498454   -0.23298959157038    0.32749347288968
C         3.08797091966142   -0.30364352819521    1.87766310631459
C         2.33532058567217   -1.59376354958109    2.32341240287271
N         2.20313634528935   -1.66458155526137    3.79639028382991
C         1.82681157099213   -3.02159213889611    4.16631368063411
C         3.44213979623927   -1.10928171638315    4.41637636425123
C         4.64462233711667   -1.29597765136731    3.44984266813673
O         4.46610467200851   -0.35580181263370    2.35212752394753
C         3.21771246929258    0.34177796270100    4.69219230495905
C         2.76532060252293    1.21744150645294    3.74974373262770
O         2.99207446970685    2.44623421918337    4.27646194549267
N         3.57565684971351    2.30607998190311    5.54792849778644
N         3.63954284207617    0.99891483482629    5.80723199550827
C         2.23531987930451    0.96168256584502    2.38867214038078
N         0.80824628773858    0.74409099106312    2.69433159441344
H         3.33789454421485   -2.30384634133620   -0.32389711016019
H         4.83687566867976   -1.52162558916596    0.20332794729715
H         4.00495777502306   -1.16233128663628   -1.41735701017034
H         2.10864418620961   -0.19718076061221   -0.02948898988534
H         3.64555008306390    0.70914651206934    0.07374374132066
H         3.00272909721526   -2.42971660873654    2.07477411982099
H         1.31149728310079   -1.64075298025859    1.93533798205708
H         1.93106026600100   -3.14211158090842    5.25120627041823
H         2.30973828355379   -3.88052586982271    3.69004365927730
H         0.79165444335836   -3.23519357280597    3.88086707084809
H         3.65899343537059   -1.71235111935989    5.30605861263051
H         4.80814656062760   -2.31474794075740    3.08101468009614
H         5.56944055483396   -0.90889383082293    3.89244489235394
H         2.23504315036666    1.83758207435243    1.73396155028514
H         0.72590745384771    0.02306983830911    3.42029236528011
H         0.42081550463558    0.30877491518277    1.86133332075086
