32
 energy: -49.315766353243 gnorm: 0.136196354914 xtb: 6.4.1 (79825abcba525fcdf90b791dcacef51065a7a4e7)
C         3.55483652776885   -1.55386960230254   -0.44864837616664
C         3.03860446135592   -0.30853331859325    0.26195986896793
C         3.18472879148168   -0.34770118663849    1.80736116966041
C         2.42919358134488   -1.60867346286515    2.32572405174026
N         2.38006520541135   -1.65766314443252    3.80468926490404
C         1.80781944460479   -2.89052868543057    4.32672251909512
C         3.65379314459150   -1.10984117096960    4.35729982016491
C         4.81596751835960   -1.27215024710361    3.33847034333032
O         4.59508690224857   -0.43308870571880    2.16886990932304
C         3.39358087014681    0.32972174772295    4.66055621228592
C         2.91936482082163    1.26630837180987    3.79016607232375
O         2.63204690496264    2.36662989828548    4.52876059694775
N         2.95630649137213    2.10285220493558    5.87118968129365
N         3.42343244967506    0.85395603778081    5.91649034665559
C         2.53092039321555    1.00515276719401    2.38313446155557
N         1.06477718722493    1.01893876810278    2.54910695974298
H         2.89956811033854   -2.40286825267225   -0.22435973383799
H         4.61299676430639   -1.73000084458373   -0.24112682807262
H         3.54627424047464   -1.33624005401667   -1.52072682228977
H         1.95861825563192   -0.17730965217154    0.13161800349135
H         3.67586728901884    0.50864472502727   -0.09821672732047
H         2.95146879401068   -2.51008318055160    1.97821613905873
H         1.42612141167111   -1.44608385719717    1.91531601009689
H         1.76273828198497   -2.80973147242308    5.41934512365082
H         2.30537357514335   -3.82807742850709    4.05977545075052
H         0.74973419325952   -2.98020222192482    4.06013318377549
H         3.88039396508803   -1.50505335197429    5.35465237301557
H         5.03720312766392   -2.29423196293116    3.01125339755058
H         5.71344263856491   -0.98598749556412    3.89853162226421
H         2.88730249100550    1.82957336211458    1.75930077345331
H         0.83555362735374    0.08170619951375    2.89942381572105
H         0.61491087295010    1.13532247351038    1.64491452941404
