32
 energy: -49.319100900023 gnorm: 0.148670942806 xtb: 6.4.1 (79825abcba525fcdf90b791dcacef51065a7a4e7)
C         3.63898920641211   -1.64377779167901   -0.29427633675399
C         3.24011262599374   -0.29025278246136    0.28121442311260
C         3.14921316740396   -0.31056504849630    1.83120678973194
C         2.40109244496283   -1.61012379284286    2.25670305876326
N         2.35217992147616   -1.72023552143654    3.73238414151977
C         1.95431344957319   -3.01618965463534    4.26355881243016
C         3.55480079151404   -1.13525443576447    4.39523433286954
C         4.80927883696382   -1.08073812828204    3.47963625627947
O         4.52418239472043   -0.25508067347077    2.31439486988148
C         3.27983509369899    0.30580612983234    4.67764287276367
C         2.77870512665405    1.22996410180853    3.80904908472339
O         2.56046390588916    2.41180317108467    4.43706828091624
N         3.17248949864296    2.20899124229278    5.68652048094598
N         3.52315216161491    0.93357968801530    5.86076603838523
C         2.38282990816833    0.98437135872305    2.40128621232329
N         0.91172647232102    0.87999149321118    2.44895536006983
H         2.75703737385076   -2.29102206121420   -0.35524046186709
H         4.46056338917268   -2.08201977073455    0.27734445143573
H         4.06464903936069   -1.45927107051234   -1.28501298473318
H         2.22047318488891   -0.05386546594676   -0.04287708529114
H         3.91132702371955    0.53722007433072    0.01973602463676
H         2.90289215955486   -2.46048533549656    1.77591732835919
H         1.42063624834506   -1.59207967475106    1.76741380887285
H         1.10425191927588   -3.33942225797496    3.65094087416519
H         1.48876580255753   -2.81947918257590    5.23432597278442
H         2.75432688197261   -3.76360739335928    4.26447944460168
H         3.76944394186976   -1.69271897560779    5.31469848004063
H         5.14154021174161   -2.03726585021250    3.06091885423608
H         5.67680245268209   -0.63055170040234    3.97537238338867
H         2.68008834867254    1.83133922198152    1.77668325749498
H         0.62632028385581    0.33176839437300    3.26850704656794
H         0.39506000098095    0.46346328068451    1.67885873139566
