32
 energy: -49.318334758527 gnorm: 0.140875212985 xtb: 6.4.1 (79825abcba525fcdf90b791dcacef51065a7a4e7)
C         2.93947609794193   -1.48966599793740   -0.62126322190324
C         2.93569933779310   -0.25367910801691    0.27016496588150
C         3.14711956810035   -0.39008402950319    1.80243347550650
C         2.38604209473021   -1.62642388933820    2.36971596814729
N         2.43634395959637   -1.67552646406893    3.84863798942462
C         2.09467765040888   -3.02262227553808    4.28284806201706
C         3.72282545153539   -1.15321610477662    4.39638561726732
C         4.83857559263798   -1.34363705476795    3.33156239051514
O         4.55040210910236   -0.49085360120122    2.18679423936132
C         3.52175798667936    0.28473488351885    4.74835875198778
C         2.96882369293446    1.17524020122812    3.87605243822488
O         2.72642577802233    2.32001827412718    4.56125849251263
N         3.02223319384829    2.09783643424385    5.91771416881825
N         3.47053891471052    0.84325308486479    5.98872856528445
C         2.65483636643366    1.00427553441889    2.43695122233423
N         1.21400632615733    1.31996449067055    2.47772006030621
H         2.64901073561634   -1.20153516595152   -1.63767420965027
H         2.22413282325947   -2.23117090177302   -0.25760820930735
H         3.94735294786785   -1.91468026059984   -0.60295320545525
H         2.03029297683521    0.36073004745415    0.21254933014079
H         3.73031967604274    0.37451309951640   -0.15121860264783
H         2.71370973688838   -2.60775370833157    2.00134343782553
H         1.33869857326244   -1.44232855904343    2.10475489113841
H         1.17010846812320   -3.31760025874274    3.77241248823013
H         1.83948336353930   -3.05390450892809    5.34666938069606
H         2.89084458422687   -3.73763827057410    4.05149128585008
H         3.85753911082560   -1.72135215361730    5.32446232440725
H         4.97482311772813   -2.37550190436806    2.98898582333491
H         5.75190389732074   -0.88443660564069    3.72651264982143
H         3.15131781166523    1.80667407978813    1.88422277242665
H         0.71562296161252    0.57876233892316    2.98358923022854
H         0.91545687421239    1.37335056090534    1.50740723846996
