32
 energy: -49.306600523816 gnorm: 0.159172203372 xtb: 6.4.1 (79825abcba525fcdf90b791dcacef51065a7a4e7)
C         3.61799600991100   -1.58904491765628   -0.32720148596173
C         2.99391119639931   -0.38242604594914    0.36338603628060
C         2.98577737082432   -0.36118458770242    1.91600777512223
C         2.29640486256493   -1.61650608601999    2.53124599828752
N         2.38492679033497   -1.82873027151513    3.99387255570089
C         2.38872442579726   -3.21384302738953    4.44263709688564
C         3.63142671678165   -1.11905457483231    4.40675092973684
C         4.73498437240299   -1.19787696801100    3.31544228306424
O         4.42300758411338   -0.36275664007548    2.16391189927136
C         3.33672113346765    0.32498607097464    4.65151918659367
C         2.75908707486865    1.21995036234488    3.80003098126046
O         2.55633363141458    2.36321199315466    4.50047712856978
N         2.89352667913640    2.12772824377640    5.84497965812708
N         3.27808611288002    0.85161710555293    5.90543503302689
C         2.44972276697813    1.09092669483804    2.35556710918134
N         1.06691462503477    1.44978692059280    1.98627891653189
H         2.93325859801209   -2.34727765087159   -0.72305322539846
H         4.34826258709773   -2.03706760476493    0.35086701476584
H         4.16227200649154   -1.12470277727785   -1.15481138500942
H         1.99297762213471   -0.30677998424640   -0.07591853203423
H         3.61838070093980    0.41820628828390   -0.05210975109283
H         2.59170043366254   -2.52451993123644    1.98867434022390
H         1.20964100170584   -1.63791553937267    2.39156830754598
H         1.44749333300233   -3.64864884954250    4.08568809916552
H         2.31608443144996   -3.23894001445795    5.53438435457971
H         3.31799719535475   -3.67265029927240    4.08964470775559
H         3.95722024364734   -1.52442112123627    5.37204324827397
H         4.80719832102846   -2.24568200982320    3.00310127057803
H         5.72882938479446   -0.79344013073127    3.53842723003185
H         3.08776980952239    1.81419568036685    1.84017993592506
H         0.40547189679630    0.85468440463968    2.49815461702723
H         1.03094623449892    1.37092815834574    0.97337399185865
