32
 energy: -49.310069426489 gnorm: 0.150887388303 xtb: 6.4.1 (79825abcba525fcdf90b791dcacef51065a7a4e7)
C         4.00661713558359   -1.44493816488892   -0.22504467665281
C         3.08681974410469   -0.31060703961982    0.21037207925976
C         3.04460264257002   -0.37241750138561    1.76135525597345
C         2.29237332563810   -1.61947104667867    2.31686685514381
N         2.32763743930597   -1.63928030122364    3.79690595312899
C         1.86452381789414   -2.96346550652572    4.18677861899718
C         3.61043878516747   -1.12676691495090    4.36225623451308
C         4.79658734352763   -1.08850021598998    3.35896450859966
O         4.43463992867016   -0.29123951311613    2.19528622969861
C         3.38506956923627    0.30496036311179    4.72472276718671
C         2.90439262377853    1.13069506028659    3.75170361947087
O         2.70587259946500    2.34597882660400    4.31955581103465
N         3.12355837270115    2.30405684243578    5.66142761722860
N         3.60272999587272    1.07027132226608    5.82926173024313
C         2.26836816459280    0.86341539843561    2.43912456643057
N         0.83418526703953    0.71077742945231    2.75078767032187
H         3.55187386485641   -2.41356796600677    0.01042436700442
H         4.96942555452245   -1.24418651237649    0.25086415804000
H         4.02216957657799   -1.40813294415050   -1.31829287698843
H         2.05746932997265   -0.32937224712268   -0.16468051204416
H         3.42083561299022    0.68795532143997   -0.09771501571465
H         2.79374562121888   -2.50309200731260    1.89983874031714
H         1.22270087606317   -1.62312348701446    2.07851537849353
H         0.92884934759604   -3.20234748227715    3.66732376489219
H         1.64393948954198   -2.87116331382343    5.25478674718340
H         2.57628119225392   -3.76292908545661    3.95674592032508
H         3.81372231071840   -1.74577577397928    5.24416130462616
H         5.13713936590907   -2.11334965145208    3.17355922813392
H         5.62891760376289   -0.67585810707863    3.94031825652931
H         2.46219375907644    1.69736126667904    1.75882174957251
H         0.69802554254248   -0.13228175867243    3.32033306678669
H         0.26152470598634    0.66846721498578    1.91188449103549
