32
 energy: -49.316893523831 gnorm: 0.136536344553 xtb: 6.4.1 (79825abcba525fcdf90b791dcacef51065a7a4e7)
C         3.36716716412074   -1.44489255419860   -0.46430142619293
C         2.96794276075645   -0.19173184044450    0.30545840107766
C         3.06278832120728   -0.32965699409670    1.84919821622512
C         2.35274373196967   -1.63884502120985    2.30903299213999
N         2.26183855633301   -1.73711950274859    3.78356005887280
C         1.72760936375643   -2.97295238591098    4.33786830498161
C         3.56028163018335   -1.25966927961579    4.34387879158888
C         4.74814789522897   -1.27989254048211    3.34209448230002
O         4.47043036592962   -0.38575390676584    2.22667223621534
C         3.39413382263025    0.17869496145583    4.71200853013292
C         2.99246764420226    1.14278350031432    3.83516649286152
O         3.05338206025005    2.35021518992469    4.44931557375312
N         3.43449897372724    2.09567623124755    5.77852534731090
N         3.63717359702947    0.78328674401542    5.90720044381002
C         2.47076483661491    1.04024616235783    2.45091883262081
N         1.01167265241990    1.24593792289114    2.52872450598136
H         3.03703588084976   -1.42443295669725   -1.50884704212909
H         2.94525029670435   -2.40470278178723   -0.15682626080585
H         4.46102218803439   -1.44333961693036   -0.44796421793410
H         1.97397936512502    0.18536940061941    0.04010904511848
H         3.64596832381233    0.61818298091652    0.00892784788872
H         2.89795971130446   -2.50615033476333    1.91331382464920
H         1.40533857419601   -1.59489888831453    1.75992815441191
H         0.73524714462803   -3.22552197661603    3.94568150715514
H         1.73553421242103   -3.01868001146564    5.43133283559799
H         2.39676272893745   -3.79291852133706    4.05760962283742
H         3.88833340015150   -1.79878664797374    5.24053213755319
H         4.90106181856168   -2.27160904626821    2.90188671838348
H         5.65348678152403   -0.95650012283528    3.86821063012208
H         2.89262944426171    1.84003564415140    1.83592855544686
H         0.73475366018487    0.84934546190942    3.43409764377651
H         0.59967781568391    0.92436750754361    1.65674885194589
