32
 energy: -49.313355582129 gnorm: 0.149651831853 xtb: 6.4.1 (79825abcba525fcdf90b791dcacef51065a7a4e7)
C         3.66110522770727   -1.28829107670873   -0.49397099702457
C         3.00848241707400   -0.13907677212025    0.26478590148203
C         3.09544625209140   -0.36737391971909    1.79823603660753
C         2.28934395421664   -1.61808908578130    2.26245073011920
N         2.27537640992949   -1.58615695382057    3.74263211960651
C         1.66143112555983   -2.75914872547170    4.34852227229966
C         3.57699619398143   -1.22601977542876    4.37820852985877
C         4.64510644003788   -1.45331733050508    3.27254883513166
O         4.49585460316204   -0.49704341285023    2.18441199359778
C         3.50666205526923    0.24627350338834    4.62197456334208
C         2.99897267439670    1.22789710403096    3.82302465356559
O         3.01392993353496    2.40919446969386    4.48867750517040
N         3.53653207253993    2.12547650306349    5.76273791093295
N         3.84004699526339    0.82705170906969    5.80714730047738
C         2.38307291882779    0.88244171500393    2.51912384321024
N         0.93129305728965    0.82354692591259    2.77637749091570
H         3.70270529453725   -1.12957927769887   -1.57728110965067
H         3.08374826278849   -2.18150776320615   -0.24374433917846
H         4.70367733624954   -1.38770591992266   -0.17782512179891
H         1.96023300907228   -0.05788260751315   -0.04369349225312
H         3.43836283287346    0.80861657809146   -0.08262046333044
H         2.79320665356717   -2.49366764044618    1.83168721583391
H         1.24473647099928   -1.55235259083578    1.93764642553113
H         0.65300444352600   -2.74393875912169    3.91813994699266
H         1.65720409415122   -2.76836792734577    5.44292422757403
H         2.11723365984670   -3.69559955540689    4.01094337591187
H         3.61417871036580   -1.82520895251066    5.29572828675978
H         4.55916846625745   -2.46154739618827    2.85212765692194
H         5.61172209664487   -1.14946244142188    3.69009611870744
H         2.43013465177566    1.73710705088065    1.83855177164086
H         0.67722818294628    0.39761171414034    3.67509905630351
H         0.33177477357597    0.60099554948364    1.98610062744092
