32
 energy: -49.313469993990 gnorm: 0.150876641301 xtb: 6.4.1 (79825abcba525fcdf90b791dcacef51065a7a4e7)
C         3.76712445932540   -1.51628874766052   -0.23556105191164
C         2.80125394153084   -0.49540086341114    0.35367927786524
C         2.92342887035885   -0.41055316890525    1.89932665040674
C         1.88816236679271   -1.35184268963266    2.58619049000975
N         2.33694069388981   -1.86878846639573    3.89901826622718
C         2.57139897257910   -3.29885456554392    4.04002058602855
C         3.50604495688076   -1.15345187995691    4.49008425499959
C         4.68530935776526   -1.23748599920430    3.48148087497789
O         4.33211361625283   -0.63345244890677    2.20430667353803
C         3.25379632282401    0.29635820333032    4.74783923721607
C         2.85845825458627    1.20366510048899    3.80967273671506
O         2.71632246127147    2.37396528884524    4.47972932215837
N         3.01300928451446    2.13809210150574    5.83367894178533
N         3.40529392922540    0.87051017186149    5.97278056460886
C         2.57911276691540    1.09298792460010    2.35758942084568
N         1.25609825949175    1.62308924238341    1.97557106780897
H         3.62170377516310   -2.45382202196551    0.31249459252652
H         4.81554856392501   -1.22184693198499   -0.14667117716102
H         3.60372768955768   -1.63543911337404   -1.31068561008705
H         1.76614225711602   -0.79309038207473    0.15242418752119
H         3.00872580414964    0.44583659119254   -0.17038038385642
H         1.77387223574694   -2.22651074375317    1.93199923787932
H         0.93119597421890   -0.82138587165813    2.52410341547331
H         2.98189317055216   -3.41837535914400    5.04977003758914
H         3.21192622639679   -3.70985281128535    3.25349418408111
H         1.55906194264709   -3.69703751351755    3.91640950065024
H         3.65006612397915   -1.67446293922714    5.44405391081939
H         4.85072014255747   -2.30989805623851    3.32903801989629
H         5.60955713936379   -0.77061362664918    3.84038974483280
H         3.37442934360638    1.62716750156100    1.83036107433372
H         0.59550951375259    1.11826194923973    2.57760274481054
H         1.04976184490370    1.44819606345864    0.99560857996597
