32
 energy: -49.319058818074 gnorm: 0.141051507157 xtb: 6.4.1 (79825abcba525fcdf90b791dcacef51065a7a4e7)
C         3.90855596240596   -1.38285431028800   -0.26961796392078
C         2.84736774329586   -0.42687747702560    0.26171051110513
C         2.97957116842347   -0.34865242444907    1.80688193107999
C         2.22703685380809   -1.57633591329329    2.40359791899666
N         2.32321392550440   -1.78245383198808    3.86661434480981
C         2.17048120324269   -3.16623948740579    4.29293741141479
C         3.58646845277484   -1.16587176606915    4.36849557044069
C         4.72163162377319   -1.21621280525245    3.30836473823572
O         4.36785525387280   -0.28188868426704    2.24880897349270
C         3.32434243239681    0.27708966648872    4.65339646006229
C         2.74871109741459    1.19496729828829    3.82526387949253
O         2.74984369909619    2.39941734253351    4.44822433282644
N         3.24421963890760    2.15959023949622    5.74240909231132
N         3.63242864854001    0.88624055452906    5.83114912344994
C         2.35717704852460    1.00830982042658    2.40727609979311
N         0.90076242974315    1.24489632743729    2.42127933403592
H         3.71637067000946   -2.39864507249803    0.09330729661956
H         4.89415886228650   -1.04036352712574    0.05453860669926
H         3.86424745171351   -1.46220633053914   -1.35981434121970
H         1.95645204986180   -1.02018029060228    0.02753140633825
H         2.96487216213711    0.56991950490768   -0.18123365465391
H         2.62912113078627   -2.50115567128124    1.96873095431642
H         1.17603087782191   -1.52445094394976    2.09746346392399
H         2.33220963229287   -3.21768974552714    5.37625705255544
H         2.86683406886872   -3.81457481565399    3.75203770753748
H         1.13514724715578   -3.46737356380153    4.10304932005358
H         3.74204787503028   -1.64016640784768    5.34476006027863
H         4.90364244891513   -2.21812110908351    2.90374272363114
H         5.69853264911472   -0.88083574361767    3.67470605605201
H         2.86527464250650    1.78594929471132    1.83024951887166
H         0.41160577913747    0.66125074989378    3.10957711161189
H         0.54575478167954    1.25464321040643    1.46872309856118
