32
 energy: -49.314972778773 gnorm: 0.140201386430 xtb: 6.4.1 (79825abcba525fcdf90b791dcacef51065a7a4e7)
C         3.67347113298241   -1.25829041693326   -0.55396224968904
C         3.11095321355179   -0.14025887788322    0.31546351444910
C         3.08730308788665   -0.41000609844265    1.84445951019123
C         2.46136213283817   -1.77118883872839    2.27453404593743
N         2.29960723585292   -1.67738984810028    3.74327119407614
C         1.93153627898177   -2.88286735505889    4.47216703145628
C         3.53412012585765   -1.13735579611686    4.38530808190095
C         4.79861861063592   -1.11422377853205    3.48224909544443
O         4.47180572394008   -0.33423103278029    2.29667650799375
C         3.33691732241630    0.29460718928459    4.76294461614786
C         2.77496324225873    1.10633883765149    3.82222482280366
O         2.70545122183866    2.37024400147099    4.30853003115370
N         3.24714562044582    2.29420159858934    5.60376110566192
N         3.57881449047769    1.03207260093191    5.88129777404893
C         2.27340419190354    0.83761796023288    2.45289764952970
N         0.82145184400239    0.58176877336876    2.39216547131069
H         2.93398408261908   -1.94282263659571   -0.98414284541599
H         4.29967220761954   -1.91063408421937    0.05931619428467
H         4.33471970813553   -0.99735354176179   -1.38549721339530
H         2.11531731729920    0.16563848916746   -0.02470529649749
H         3.84077042230123    0.67787222270202    0.27497402305425
H         3.10916517635770   -2.61355784705287    1.99733681772905
H         1.46728139558194   -1.87724757758460    1.82555859986394
H         0.99186384955569   -3.29420170007308    4.08460485255968
H         1.60700133300600   -2.51630768456648    5.45100796955986
H         2.72922550859975   -3.63078183572874    4.52667796739458
H         3.65453956997765   -1.70324329897791    5.31671734593489
H         5.23932217665839   -2.10452973509534    3.32180706391135
H         5.60499572361242   -0.58367256513625    4.00118137939418
H         2.57603262492923    1.66239628881318    1.80174272007873
H         0.53420274773078   -0.08467847463976    3.11811743059465
H         0.62964586702779    0.15528149653172    1.48949837372282
