32
 energy: -49.310078391270 gnorm: 0.148288905969 xtb: 6.4.1 (79825abcba525fcdf90b791dcacef51065a7a4e7)
C         2.93756271713704   -1.79435067570945   -0.27035246104246
C         2.81170024432792   -0.43679521193662    0.41047341914920
C         2.90764584910977   -0.46531745441418    1.96003223946802
C         2.00161315115561   -1.42672898701171    2.78730316804166
N         2.57472894882633   -1.93878392622019    4.05280294811503
C         2.94808521950050   -3.34409071441964    3.97757461937518
C         3.72375048872084   -1.09220951743238    4.48976000748501
C         4.80442092068731   -0.95384050747019    3.38160277229839
O         4.27846586106216   -0.95917862175226    2.02361879705991
C         3.18637485455260    0.27322488331955    4.77053140863431
C         2.81504799422584    1.19224680768984    3.83395817989341
O         2.31248649314351    2.27794675794206    4.47229075295084
N         2.45985256427979    2.01815349279754    5.84620104884153
N         2.95788987182549    0.79112211528988    6.00853799919217
C         2.94197605243867    1.09292612860563    2.35989782288933
N         1.88376284088080    2.00173384079965    1.87868462216805
H         2.00964018792578   -2.35237576958441   -0.43782954498634
H         3.51903523028932   -2.48205071850134    0.34831454165664
H         3.37663331445935   -1.59509647729823   -1.25234171864396
H         1.91078817090892    0.04374341697675    0.01295749459699
H         3.57231840684063    0.25965168209433    0.03626388019144
H         1.89469499320412   -2.30542222899277    2.13727292351690
H         0.99014041334048   -1.05768807895959    2.99164505337038
H         3.26482667334919   -3.67588409767659    4.97355286189934
H         3.84886197249298   -3.47509146146356    3.36990814357229
H         2.06321770085040   -3.90440937698629    3.65865756346445
H         4.06377239454739   -1.43324307687150    5.47481530063331
H         5.42792287497344   -1.85379080945675    3.42634574948717
H         5.30504643438787   -0.00327443654581    3.59797650637979
H         3.89725149004358    1.49245747955323    2.00823104787100
H         0.96366603302908    1.66495667526051    2.18474544442887
H         1.86607970832736    2.14117955217357    0.87184252321841
