32
 energy: -49.314829081982 gnorm: 0.152385065965 xtb: 6.4.1 (79825abcba525fcdf90b791dcacef51065a7a4e7)
C         3.79401088251905   -1.03968490199815   -0.58084418043388
C         2.92029390061064   -0.11304528941877    0.25598301139616
C         3.01174119283051   -0.37025926903795    1.78458694492710
C         2.23783453340507   -1.60858326512214    2.32975368986383
N         2.17582487927403   -1.69290764222746    3.80664091870852
C         1.72066349887517   -2.87457052861821    4.52528013189647
C         3.46980949691772   -1.25789161043159    4.41015982602222
C         4.54609815729022   -1.43298888199838    3.30293324475311
O         4.39471743776699   -0.44786839017796    2.24114268287045
C         3.40098687698229    0.21481783247702    4.65183439811479
C         2.93662922166400    1.18070512560035    3.80857402697532
O         3.08359498672530    2.38820280373159    4.40784970079497
N         3.69725774410421    2.10980706680043    5.64184833681101
N         3.92905047572974    0.80134290760136    5.76098741920073
C         2.38468429735163    0.95322407469364    2.45120950688662
N         0.94366729624698    0.77838425151645    2.71618850083428
H         3.62410640741251   -0.98703777316749   -1.66197393691581
H         3.55924802154362   -2.09417362941661   -0.41734978619646
H         4.83251439204041   -0.86125530531751   -0.28680087209199
H         1.86660236872802   -0.27326197246148    0.00173190555087
H         3.25329385708169    0.91040004987677    0.04318800933438
H         2.72200610657360   -2.48467893134781    1.87797177584514
H         1.18582760387658   -1.51323482958003    2.03783929934991
H         0.75013267353258   -3.10620611945697    4.07052796833242
H         1.58566225875689   -2.49570677693849    5.54314821052159
H         2.42930377990605   -3.70697038544052    4.46532141418435
H         3.67596470153898   -1.85414738019779    5.30694954155000
H         4.52158904401253   -2.46114452785176    2.92482950468245
H         5.54629024440359   -1.22288436946832    3.69852297890259
H         2.55039602042853    1.81861272283772    1.80353049736179
H         0.86767217826265   -0.06706474029997    3.29334616762344
H         0.37707470343226    0.62070335910176    1.88697297624679
