32
 energy: -49.319920685204 gnorm: 0.144240253281 xtb: 6.4.1 (79825abcba525fcdf90b791dcacef51065a7a4e7)
C         3.59899085996753   -1.56850677841190   -0.32390543250183
C         3.10338788782320   -0.28431720689536    0.32997294292084
C         3.01126686007298   -0.35239583571779    1.87853054967413
C         2.29872670879675   -1.65158560698522    2.36224233383264
N         2.34645974585683   -1.78347169502904    3.83617561267020
C         2.14337340197404   -3.14869687461345    4.29970287876893
C         3.57182624305154   -1.12301077416193    4.37482070154689
C         4.73548844657014   -1.25643688698865    3.35350058346991
O         4.43196654295734   -0.41892362166285    2.20144863482922
C         3.29144758823230    0.30844751231546    4.69782420768576
C         2.81252508331773    1.22569041838549    3.80959390589015
O         2.74908499173227    2.41285565242033    4.46181703091466
N         3.12618145139777    2.18694589554189    5.79733260423205
N         3.50168196728156    0.91086028697609    5.90031479768926
C         2.44837162466425    1.06891908246368    2.38073271156573
N         0.98857070656107    1.28309066211492    2.36012588318575
H         2.83931351299509   -2.35600825931161   -0.38058478698315
H         4.51431192120842   -1.95321079182930    0.13214354679396
H         3.85087140731644   -1.38359118012192   -1.37230923857996
H         2.13668661371678    0.05372363385515   -0.05963698205182
H         3.82351178830804    0.46620206790807   -0.01895890797411
H         2.54050591713354   -2.58328753544435    1.83352033378660
H         1.23930433448598   -1.57496710991462    2.09246880118207
H         1.81092318528316   -3.09209882894164    5.34309071317493
H         3.02371360048108   -3.79594867952242    4.23737522656051
H         1.33792688356138   -3.63586330308660    3.74061398115460
H         3.83226068807222   -1.50176518503423    5.37029632921846
H         4.94534424849616   -2.31565807236493    3.16727977218329
H         5.67234033496116   -0.80907216357811    3.70448875354295
H         2.86583039324251    1.88668475935064    1.78673484151529
H         0.41708352685822    0.69308904833428    2.97573186215682
H         0.64869156977086    1.10754922044706    1.41823619019936
