32
 energy: -49.309671021192 gnorm: 0.156088032258 xtb: 6.4.1 (79825abcba525fcdf90b791dcacef51065a7a4e7)
C         3.86208996055990   -1.43591080306178   -0.26077544921980
C         2.86757119265822   -0.42825932704406    0.30304456979231
C         2.88326084447904   -0.39350930699017    1.85536473788065
C         2.17833077252717   -1.64521870373114    2.46024636393682
N         2.36377680555283   -1.78813867115112    3.92220920182184
C         2.17041610538251   -3.16228616098336    4.36297183289871
C         3.63056487605852   -1.14272318578507    4.37669467550279
C         4.69008165177776   -1.31599140466711    3.25312476141552
O         4.30421977119467   -0.40591266502696    2.18371136907958
C         3.36221494718840    0.30210960900666    4.64588377129831
C         2.88576430915493    1.24325460846922    3.78165276610158
O         2.78698431100609    2.37793996153112    4.51752814972109
N         3.00883048520520    2.07228761172350    5.87185444504248
N         3.39617564036156    0.79627785273274    5.91384578629504
C         2.52340157502476    1.09428887656023    2.35150182175535
N         1.10961326163407    1.48388475296305    2.18800726807377
H         3.36897223574082   -2.41259682610362   -0.20246484769758
H         4.81662430319656   -1.31635256342947    0.25725979248055
H         4.03252659017930   -1.31228054343881   -1.33430003788428
H         1.83082519732392   -0.61913530894741    0.00420856576669
H         3.13013645310770    0.59917470485334    0.02188652703938
H         2.57299297639337   -2.49882396955496    1.89308464039430
H         1.10829773670425   -1.57057738166483    2.23556461540322
H         2.55583420425779   -3.09636210308046    5.38741879056431
H         2.54114838071566   -3.95586705680691    3.70676649814620
H         1.07709604399426   -3.21042007757469    4.39443596323921
H         3.83737883659114   -1.56031596168818    5.36921519376113
H         4.85195414507631   -2.30920992069229    2.81955650181701
H         5.62422426106227   -0.84124799465068    3.57408524900709
H         3.17452765291336    1.77101559747529    1.79121460339653
H         0.65632963548895    0.77000325435260    2.76988130095116
H         0.86003382758589    1.27967580881140    1.22390269257761
