32
 energy: -49.315070905909 gnorm: 0.138105399091 xtb: 6.4.1 (79825abcba525fcdf90b791dcacef51065a7a4e7)
C         4.05767384147792   -1.09198356756155   -0.38639278642879
C         2.86860968039543   -0.47074111512689    0.33645320054373
C         2.96759938494101   -0.47348869173579    1.88608061223633
C         2.16057553790793   -1.66701216163253    2.48089054323971
N         2.27338794662870   -1.80785598638688    3.95044424157000
C         2.17255064601282   -3.22815619446477    4.25461613668424
C         3.48965752062303   -1.12656444502635    4.48373625226072
C         4.71991991380985   -1.21309154783900    3.53823398538991
O         4.37116985734368   -0.62815841166527    2.25098718621295
C         3.25646057482310    0.32854209991196    4.72929766401153
C         2.71828636133623    1.18363299553326    3.81341423566352
O         2.74989066457145    2.42028436378393    4.36881993935747
N         3.29734179950639    2.33011303755663    5.66071977652053
N         3.66399750786927    1.05552856923568    5.80562827518589
C         2.32651671952430    0.90609359430635    2.41044676848483
N         0.88963170530159    1.17015243913787    2.20320973129449
H         4.48267534939866   -1.99733320986288    0.06104049866288
H         4.92496126205503   -0.43225274447729   -0.46613151739543
H         3.75807170205717   -1.36925917971262   -1.40135333757801
H         1.95349256724153   -0.87078107073603   -0.11422135220882
H         2.87952153703627    0.58347837843538    0.03295157106861
H         2.45928656287465   -2.62484391905133    2.03434527630788
H         1.08459466522666   -1.57821772696414    2.29272937334558
H         1.18781796586914   -3.54525877447305    3.89111625616913
H         2.17861636454970   -3.38105424134032    5.33831530899884
H         2.92888099978287   -3.92929369364199    3.88715699575378
H         3.69957067740225   -1.52847901902695    5.48206178499401
H         4.98464612554687   -2.25976598582277    3.35099131107858
H         5.63086327755437   -0.69072654837194    3.85182024842568
H         2.80105867667529    1.73817326865670    1.88290591761616
H         0.24840069425934    0.49430869783372    2.63417173296446
H         0.80412675252745    1.09004874517848    1.19337750687876
