32
 energy: -49.315173753525 gnorm: 0.144257254500 xtb: 6.4.1 (79825abcba525fcdf90b791dcacef51065a7a4e7)
C         3.67094865381101   -1.46184002188523   -0.41098383963671
C         2.89247926237586   -0.34749923959435    0.27789359423132
C         3.04945886752038   -0.36633883157239    1.82261172740828
C         2.26079324988157   -1.58805768156977    2.38385518588993
N         2.33608299482207   -1.79984047832768    3.84728649483692
C         2.16320207029781   -3.18685297520924    4.25502403907378
C         3.53562359688708   -1.17686244848665    4.48043018935837
C         4.73322788280393   -1.16418472250743    3.49018259457923
O         4.44195332304763   -0.46962695088320    2.24377722729044
C         3.23244853274838    0.26236632713097    4.74257844397746
C         2.82033067048988    1.20127391927692    3.84354241063985
O         2.81490951775078    2.41541197110420    4.44738042081229
N         3.20663950436134    2.18975536039586    5.77872016589653
N         3.45054767576919    0.88708588243329    5.93221768186245
C         2.51486422734466    1.03645720993576    2.40189231231755
N         1.07320623272309    1.26068119537354    2.18130522086721
H         3.21663896898182   -2.42108009044252   -0.13906104694598
H         4.71304071777710   -1.56929907031206   -0.10068208676611
H         3.59957769656041   -1.22536872600988   -1.47671159220049
H         1.82084966976501   -0.43026234587141    0.06496369292904
H         3.31151353297443    0.58647703422552   -0.11670702504022
H         2.54273123249476   -2.53608065027421    1.90653343552579
H         1.19332237227063   -1.39606996626948    2.22678652211039
H         2.05713394006386   -3.27122895500801    5.34314852907902
H         2.99915062290862   -3.71363968662199    3.78438162560739
H         1.15281969234699   -3.52919136118589    4.00887875748918
H         3.84261514434572   -1.61841947912040    5.43595952199982
H         4.94427403613982   -2.21820543946638    3.27765724614087
H         5.56004744511731   -0.59981043594277    3.93613150647125
H         2.94907679455934    1.88857198283816    1.87160384461449
H         0.38988822150411    0.77462580757472    2.77333298884469
H         0.96645769989535    0.91550359371826    1.23107051436198
