32
 energy: -49.312361249734 gnorm: 0.150492393743 xtb: 6.4.1 (79825abcba525fcdf90b791dcacef51065a7a4e7)
C         3.69158308519484   -1.31420243084852   -0.33361654883499
C         2.98272703231483   -0.14303493442860    0.33586973837601
C         3.03623804219966   -0.28665440226165    1.88107576684073
C         2.25577124753829   -1.57619324440582    2.27799615803368
N         2.18702137278714   -1.66259656031249    3.75446479221245
C         1.68021464963226   -2.93851671795450    4.23935249287318
C         3.48080399456656   -1.21535474686744    4.34941983859220
C         4.63261673169332   -1.36026649176186    3.31630075606928
O         4.45251151571484   -0.51356339430675    2.14521848709648
C         3.35989780096977    0.22698265304043    4.71963707146040
C         2.97811860591184    1.21222127945387    3.85754433750259
O         3.13626448390384    2.43682979870558    4.41799486225210
N         3.75244462268901    2.19004928159238    5.65745450968105
N         3.90278403123830    0.87093005504021    5.78907129183054
C         2.32595108107964    0.99629812086612    2.54343474803111
N         0.86526043927737    0.86202653276524    2.70364340614908
H         3.60852494939661   -1.19548301173323   -1.41965883671604
H         3.04804903204218   -2.13904923621056   -0.01852581915757
H         4.76574940899917   -1.34087477601655   -0.12808449680344
H         1.96328997932961   -0.17229230934048   -0.06471852972448
H         3.28282273274834    0.87480892710493    0.05739623103490
H         2.77185432589864   -2.50438103612768    1.99835654479186
H         1.27919140766113   -1.66585949568832    1.78883800617871
H         0.66066190068907   -3.12143403843156    3.87957741685394
H         1.75168082530948   -2.88271091011719    5.33003888278221
H         2.22059926089126   -3.84434506154008    3.94589874610520
H         3.63257653030366   -1.88920623082036    5.20097253442876
H         4.82720489903077   -2.37533163973096    2.95237032841755
H         5.56146004017025   -1.02686271126598    3.79286279984613
H         2.57746169322545    1.85450517029761    1.91409455999173
H         0.68457465959880   -0.00154603929768    3.22830071101954
H         0.40070998974138    0.94806769548533    1.80348863324672
