32
 energy: -49.313141757606 gnorm: 0.159294404992 xtb: 6.4.1 (79825abcba525fcdf90b791dcacef51065a7a4e7)
C         3.12646146344287   -1.96064393855442   -0.10240379055487
C         2.64079347355137   -0.63302592617280    0.46669998119523
C         2.91347117428436   -0.40789529557865    1.97869029396115
C         1.87295165283783   -1.19768193753632    2.82906715889068
N         2.49050675687346   -2.01370674011435    3.89905824114934
C         3.07157681326499   -3.30708745071212    3.56820281714500
C         3.53994820317509   -1.11108075833704    4.45745702312210
C         4.77717299490349   -0.92468689706852    3.53575252022160
O         4.26806498504947   -0.91289705443725    2.17140368553195
C         3.13080105541140    0.29554243315662    4.75075906275613
C         2.90542178188950    1.27995247213076    3.83435553186745
O         2.55780500646702    2.39182658936340    4.52838683655071
N         2.64399626913817    2.05342953363054    5.89033298125297
N         2.85910573493649    0.74196223887926    6.00772934008636
C         2.94652390443828    1.15567656577509    2.35729920144766
N         1.82794500415327    1.93965759812566    1.79920619284048
H         2.43156249543074   -2.78526047293825    0.09151319580239
H         4.10416898324813   -2.13065087683126    0.35473529358014
H         3.41452244445698   -1.85259117930956   -1.15222929980355
H         1.55024078695975   -0.59550550599290    0.36737267390976
H         3.01904483045148    0.18118084195208   -0.16385873632605
H         1.37830128789478   -1.94047619576146    2.18902783260102
H         1.12943982749718   -0.54729565318015    3.30363197383512
H         3.51934880198731   -3.64973972541948    4.50866776903517
H         3.75458259107203   -3.42142374542151    2.72070720163847
H         2.20053152253292   -3.95181974005353    3.41245944480145
H         3.80342635345689   -1.64332887476742    5.37916409649855
H         5.49846623242388   -1.74815358307194    3.58377182123285
H         5.32955265454968   -0.01513889974760    3.79770386421262
H         3.87634193076428    1.55387840158956    1.94170356762316
H         0.90491319643480    1.71780727441342    2.18967378217156
H         1.77086542510095    1.74750136079963    0.80255845114166
