32
 energy: -49.317698405140 gnorm: 0.147759852889 xtb: 6.4.1 (79825abcba525fcdf90b791dcacef51065a7a4e7)
C         3.83925164656022   -1.35808433358558   -0.44185543234129
C         2.99696770872152   -0.31274581337972    0.27935690438810
C         3.02367750919192   -0.36099542593681    1.83116559154986
C         2.27973798940455   -1.61464170455053    2.38298950451994
N         2.37692147985014   -1.69459871898572    3.85822302624735
C         1.92022971341530   -2.88375104368676    4.56341148590053
C         3.70176919303316   -1.19826384719965    4.33393350605390
C         4.79961949619808   -1.21647824650960    3.23420627208280
O         4.43767812840314   -0.28010258816981    2.17922912475548
C         3.39102478625776    0.23311387007944    4.62823273132888
C         2.85582963513643    1.15711042484873    3.78002821886274
O         2.58478343842894    2.27494340256079    4.49819555971837
N         3.21185904562612    2.07705541068112    5.74095673174529
N         3.65349486488404    0.82108905617932    5.82759835872044
C         2.33407916193938    0.97524604082038    2.40397186618273
N         0.85907884253152    0.99192040900441    2.44150647873289
H         3.64064692254206   -2.41922946440955   -0.25475124851102
H         4.86300718580564   -1.10975653173346   -0.15194441935609
H         3.75984611169445   -1.14421364719676   -1.51178170056866
H         1.94409133958212   -0.38908756448340   -0.01424511709600
H         3.52595256567571    0.60862975513653    0.00576389644668
H         2.53258670811645   -2.56073793157912    1.88595622485932
H         1.22966221966153   -1.41036540596600    2.14500632168467
H         1.41878931237907   -2.55976696367633    5.48318129406959
H         2.77888460780324   -3.52169963730462    4.79482424709323
H         1.22087626511003   -3.44972124248736    3.93952198591354
H         3.91762273030603   -1.77591034665630    5.24056711071640
H         5.05115791351174   -2.20752146211893    2.84021523650747
H         5.74053916632677   -0.83104238466873    3.64302007579488
H         2.66793804140526    1.74144288362284    1.69875796567718
H         0.57542079161495    0.33614471474758    3.17850483451215
H         0.40040433761076    0.69475606983047    1.58430179548857
