32
 energy: -49.318613443773 gnorm: 0.146404289165 xtb: 6.4.1 (79825abcba525fcdf90b791dcacef51065a7a4e7)
C         3.86694479287857   -1.36397419958087   -0.34566087511249
C         3.10414170390043   -0.22502628468430    0.32011024715922
C         3.01534699923178   -0.39620986728044    1.86087736812144
C         2.29815004587365   -1.67557969844464    2.38853823441963
N         2.25019815378367   -1.74403014860575    3.86676922330827
C         1.86160000846719   -3.08906378966917    4.26654087877370
C         3.52108485682091   -1.20340329745010    4.43284326815823
C         4.71005362867757   -1.16492582140554    3.43290336868964
O         4.40818506874104   -0.31911551144845    2.28649244586478
C         3.28768600943623    0.23899529619973    4.74433577486966
C         2.76864917322433    1.10687615658481    3.82943798535964
O         2.93060688237593    2.35765271976819    4.32754302574744
N         3.47114969724619    2.23096445914911    5.61928694542806
N         3.72021216105431    0.93727997038109    5.82987845826257
C         2.27205226563820    0.90506621806997    2.44687024445786
N         0.80738147280617    1.04186804538798    2.33138198560490
H         3.36162320781039   -2.31942463569649   -0.16609093356217
H         4.88525919188313   -1.41621752485189    0.04689092470379
H         3.91462369552775   -1.16349313178605   -1.42005474751268
H         2.10388278498456   -0.29694281499454   -0.12135205596128
H         3.50119084048827    0.76481070043731    0.06284428737643
H         2.73665774207182   -2.59250671580542    1.97257131783983
H         1.22606882757237   -1.73240456355356    2.16845481062442
H         2.00775952219728   -2.95864713141118    5.34543547790952
H         2.50110752189040   -3.86783605905840    3.83950177568650
H         0.79448635985005   -3.26095581440952    4.09225027942310
H         3.88050689515513   -1.62287814628047    5.38000185008216
H         4.96188876763636   -2.19086544664730    3.14188082386670
H         5.54748356694630   -0.63024341009226    3.89533734185441
H         2.60228055179856    1.72051059461475    1.79737370523712
H         0.38075708527834    0.34003682293681    2.94708872684882
H         0.39037603374430    0.97062690385004    1.40697948983046
