32
 energy: -49.318866897729 gnorm: 0.142181321226 xtb: 6.4.1 (79825abcba525fcdf90b791dcacef51065a7a4e7)
C         3.72833062189558   -1.42357368542051   -0.34283150626752
C         3.09700538193445   -0.20708858336869    0.32343760336973
C         3.09714744515928   -0.33699550333262    1.87078236193595
C         2.52935410467659   -1.71642741683540    2.32284755697482
N         2.38047468515901   -1.75198893257654    3.79550569312699
C         1.75474399957814   -2.98281448126324    4.25753485082219
C         3.56354183993676   -1.10116741971508    4.43162962605284
C         4.77851877725946   -1.08004193689622    3.46292338576374
O         4.49730392480219   -0.28496073850474    2.27568213292406
C         3.24210298426055    0.33427598688308    4.69277239891880
C         2.76428704491335    1.22865863017590    3.78094677566683
O         2.69996546193848    2.43949613810499    4.38800210741362
N         3.35320609231476    2.27486778077246    5.62210622883033
N         3.70083300743020    0.99769185946160    5.78937141318982
C         2.25272122387864    0.91569038646810    2.42478286501194
N         0.82038863444026    0.57562499813715    2.52524031402285
H         2.98063316502666   -2.22417712456335   -0.32130361754217
H         4.63790352375774   -1.70973876713182    0.19062624945727
H         4.03439077591508   -1.15442812589916   -1.35805363869853
H         2.06148230687056   -0.09631898505866   -0.01715146241316
H         3.60791420902832    0.69346248197077   -0.03931712674178
H         3.22638732955830   -2.45992730824546    1.91367128459199
H         1.52173411062190   -1.76797345906967    1.89498207349730
H         1.89063789035572   -3.79391854683450    3.53225718050091
H         0.70286903030941   -2.75646050929848    4.45788810667544
H         2.18533578890057   -3.31715784579905    5.20698776649437
H         3.72153892170782   -1.52638736320789    5.42986688995616
H         5.02220754354277   -2.09572980782237    3.13177221112261
H         5.65487991077343   -0.62006990426088    3.93349350838358
H         2.47124807141442    1.72910849680992    1.72732822003327
H         0.83611838251237   -0.28008499500947    3.09197059495722
H         0.47946187638273    0.45999913947883    1.57450984508382
