32
 energy: -49.321235206438 gnorm: 0.141218437073 xtb: 6.4.1 (79825abcba525fcdf90b791dcacef51065a7a4e7)
C         3.48115141777994   -1.48569418605051   -0.44125328718833
C         3.06271569335924   -0.20788155314191    0.27598343268847
C         3.08837670295656   -0.34216333383968    1.82274183695700
C         2.37707067018067   -1.63285268527093    2.33043205341405
N         2.39314701230550   -1.71738229660597    3.80852135820554
C         2.04802105695899   -3.01767265184465    4.36536465071737
C         3.62694167343783   -1.13659764235351    4.41540696426685
C         4.81115739668933   -1.17733273005776    3.40993154515738
O         4.48800725045613   -0.38683042310876    2.23033085290707
C         3.37710481783561    0.30139779394983    4.73441630980704
C         2.76949830111010    1.16617588463190    3.87265789511909
O         2.61541272335033    2.38053561944392    4.45606942501382
N         3.13559306911336    2.22023528298637    5.75243164894429
N         3.60934699454977    0.98073496718908    5.89098357846300
C         2.41220605939652    0.97835694031515    2.44580975697620
N         0.93728739064041    0.94120615156814    2.42240941085864
H         2.77358782723856   -2.31858846269938   -0.36301204330800
H         4.49878788520978   -1.81390512622468   -0.21656662992028
H         3.57702103883275   -1.25028981380338   -1.50529366548065
H         2.04855412118474   -0.13239936966353   -0.13188616035622
H         3.60715327255676    0.69069330700420   -0.03986778556163
H         2.90662978067973   -2.47047444637658    1.85711443872852
H         1.35866302568062   -1.81591428043356    1.96938048485992
H         1.59369305991153   -2.90515473965140    5.35698476447118
H         2.97114124408519   -3.59535503246585    4.47468386207210
H         1.35829305380037   -3.55690205456718    3.70797393581770
H         3.85836313800409   -1.67976545847820    5.33934719630689
H         4.99358718207192   -2.18603613115140    3.02275717437802
H         5.68210080650230   -0.69853953194562    3.87170422281241
H         2.86108407916942    1.76236774237109    1.82962667932521
H         0.64613182087071    0.21715864975192    3.08923313321643
H         0.56385120598744    0.88079031337330    1.47880771425426
