32
 energy: -49.319643458839 gnorm: 0.140973614210 xtb: 6.4.1 (79825abcba525fcdf90b791dcacef51065a7a4e7)
C         3.59483561899319    0.34498185198158   -0.36380469937739
C         3.15988624105518   -0.91678986291771    0.37177212674023
C         3.03902939096657   -0.67305300725669    1.90054208841560
C         2.12350932815042   -1.79808680730956    2.47124918275307
N         2.09327910143829   -1.72652184675281    3.94980127486377
C         1.50986745564036   -2.88480096123012    4.61158804758006
C         3.39540264424957   -1.34255095989072    4.57021312138951
C         4.56467069254766   -1.67578355002741    3.60234158506863
O         4.39765862226845   -0.91001750877827    2.37495124696026
C         3.40107126357764    0.14737036700038    4.68029751983990
C         2.94706047227683    1.00032633255954    3.71801134729092
O         3.18377949292583    2.28461415815578    4.08318229066102
N         3.72858972902411    2.21147848393471    5.37727339345081
N         3.85921160188062    0.92363879242036    5.70039458266902
C         2.55763825648512    0.80947519711880    2.30000025691530
N         1.14872511590382    1.15714300188141    2.03278562112141
H         3.84536367703227    0.07402582724025   -1.39545353914975
H         4.49935787739103    0.66075679467141    0.16147252782745
H         2.85834836172016    1.15160912387434   -0.42485460772998
H         3.93309236198302   -1.68300237777598    0.24667403104920
H         2.23158444521010   -1.29460704405676   -0.07445763164131
H         2.59013034761413   -2.71070793971820    2.07696486244433
H         1.08839554458214   -1.65629512413573    2.14040406625459
H         0.72307537991146   -3.23497640559721    3.93282442950071
H         1.02051941306406   -2.55770190498342    5.53428149837528
H         2.30955803559468   -3.59295714933914    4.85172428012365
H         3.46372502937255   -1.81931933862283    5.55523935505513
H         4.52608485870213   -2.71184569281717    3.24772413260980
H         5.47828082183959   -1.35700355918664    4.11684639904101
H         3.08173438755127    1.55003978034301    1.68948135279804
H         0.51363913581526    0.88191149062341    2.79079857101541
H         0.86783886383201    0.71566812175184    1.16118269596759
