32
 energy: -49.319273268493 gnorm: 0.141827995381 xtb: 6.4.1 (79825abcba525fcdf90b791dcacef51065a7a4e7)
C         3.79398833810318   -1.47878071516617   -0.25471466424446
C         2.89681064231081   -0.37544433047378    0.29304723375280
C         3.02094279450289   -0.37427462521914    1.84086552894117
C         2.17266810885234   -1.57499805675463    2.35882103368234
N         2.26793172659107   -1.75873016951803    3.82487663840861
C         2.06922993611398   -3.10168869390796    4.35110983376722
C         3.54195908369654   -1.18085513307600    4.34524663956366
C         4.72942228478101   -1.22460919990083    3.34373590747397
O         4.44493035314344   -0.44271927389147    2.14854128684280
C         3.25821325754514    0.24245936908659    4.69976094660340
C         2.86625284885975    1.20088055470362    3.81237702477681
O         2.87182008390123    2.40044228883392    4.44467566952875
N         3.20346556021988    2.12349904782895    5.78264148409329
N         3.43980733689389    0.81764909867927    5.92011483691237
C         2.55114414185986    1.07117642327183    2.36921638968947
N         1.10311130788395    1.35430649426619    2.35047892092839
H         3.53174964737033   -2.49205118475153    0.06931408112250
H         4.83881026840677   -1.25000081047305   -0.03156138792385
H         3.68628604216297   -1.49731753500669   -1.34322039736868
H         1.84510598157035   -0.52108302259830    0.02233422313088
H         3.14754616742010    0.58999499353043   -0.16375650360964
H         2.40345296881738   -2.51981711354173    1.84879366193069
H         1.13232561578234   -1.40967265109548    2.05653157122029
H         1.90101015127681   -2.98582280254168    5.42845001101883
H         2.76586413565210   -3.93503964658166    4.21677637960693
H         1.19551192697247   -3.48852084304826    3.81666306584517
H         3.80292447018186   -1.67900832199390    5.28651874840655
H         4.86125790727763   -2.28061498317935    3.08270272525041
H         5.66657449661092   -0.80876490893567    3.73082582340463
H         3.13852838192374    1.79361226041203    1.79570771057207
H         0.65464516874215    0.69970758681404    3.00166907526576
H         0.54881564140759    1.39032397094017    1.49904021841739
