32
 energy: -49.312745635958 gnorm: 0.146507150153 xtb: 6.4.1 (79825abcba525fcdf90b791dcacef51065a7a4e7)
C         4.06113420756592   -1.07795645677118   -0.34936293195440
C         2.77756362418498   -0.60905224198603    0.32509794965564
C         2.96864441866667   -0.43860950687563    1.85662954551349
C         2.13095816707575   -1.57045674289361    2.52505170856501
N         2.23090057540998   -1.77876365768003    3.98750561625031
C         2.23393255339634   -3.18278218680399    4.37307553561279
C         3.51034601405242   -1.16541271217225    4.45085234940195
C         4.68645312373227   -1.21847798954001    3.43647413243779
O         4.38773522363701   -0.58373687549266    2.16028878982154
C         3.26801061355861    0.28648053476242    4.70638281940652
C         2.71291227349217    1.15494276181694    3.81346985829870
O         2.66706502467383    2.38272634870061    4.38725241821660
N         3.19735819048363    2.20743162084675    5.67756234991587
N         3.58727109986356    0.94388953093786    5.85484675349775
C         2.47960641537351    1.01068295497927    2.35621670060387
N         1.04131450096446    1.25260472845071    2.13237961251770
H         4.19971830235700   -2.12634710588745   -0.06274070779955
H         4.87496700215744   -0.42583779555703   -0.02346735193552
H         3.91695418861743   -1.05928177312670   -1.43363757713854
H         1.90009282774364   -1.21477898043437    0.07267177953915
H         2.37045112488061    0.33667963433242   -0.05366540409809
H         2.43290672952669   -2.50293577389913    2.02969067755607
H         1.07207352660295   -1.50936804608892    2.24927026991804
H         1.31076451395012   -3.65231952946590    4.01296428209116
H         2.11643303963317   -3.17816929101263    5.46118908188075
H         3.18300011379370   -3.69282855303312    4.17870710085970
H         3.80753974017165   -1.68013408436791    5.37225916306118
H         5.08197386005757   -2.21667697691007    3.21777504763640
H         5.59156733344453   -0.75824877145484    3.84875641725386
H         3.00722576404481    1.85242969652773    1.89913220578158
H         0.52588350770535    0.39722330460314    2.36970583404113
H         0.84109921602480    1.40530972316791    1.14745126963387
