32
 energy: -49.318572787485 gnorm: 0.143490856653 xtb: 6.4.1 (79825abcba525fcdf90b791dcacef51065a7a4e7)
C         3.52354072441622   -1.32754244056047   -0.46746474748590
C         2.92464799284723   -0.13835412901218    0.27380493598653
C         3.05905384878653   -0.37076089484049    1.80320801834608
C         2.32730477858631   -1.67857497827503    2.23186899761100
N         2.29120937958995   -1.56592926530995    3.70772798923716
C         1.57070631976070   -2.66660335505000    4.33169375004170
C         3.59299173949457   -1.24121578452426    4.36178765968397
C         4.75606110725783   -1.22299105981149    3.33128072951742
O         4.48139708481571   -0.56148545085478    2.06331081715795
C         3.49238588900290    0.19441608502991    4.76285605397063
C         3.01589728384567    1.13263928679969    3.89547483401033
O         3.03582039962210    2.33624032068589    4.51975725042495
N         3.47573536781831    2.09274770024106    5.83277856143075
N         3.71417464522507    0.78705675009615    5.96812367269450
C         2.49202062122149    0.95366151410541    2.51984790250715
N         1.02067825507086    0.89114694291205    2.61234863328193
H         3.26027976184728   -1.27526903359477   -1.52974623552867
H         3.10016510333550   -2.29816435173701   -0.19832410994029
H         4.61705592125829   -1.34671767912644   -0.44206885516885
H         1.87939546783634   -0.18910941041549   -0.05092559149924
H         3.24848912338827    0.87347460397926    0.00005216166692
H         2.85261116145462   -2.56663042858891    1.85572627775733
H         1.29016884990388   -1.67533396006081    1.87780336130133
H         0.52321181804364   -2.65675925409992    4.00759033852705
H         1.57715184593575   -2.52727779871019    5.41721912766767
H         1.94631382486338   -3.63607029098656    3.98860705438291
H         3.78709536187597   -1.95653349151877    5.16980812226030
H         5.02651610973215   -2.25023341546404    3.06240454963086
H         5.66480929608371   -0.75146201205606    3.72224931536571
H         2.76795501386340    1.78026827461071    1.85922134152842
H         0.76982648673173    0.24187517984590    3.36679531298334
H         0.73897784113500    0.43964525182892    1.74616163226597
