32
 energy: -49.311150194653 gnorm: 0.154576136947 xtb: 6.4.1 (79825abcba525fcdf90b791dcacef51065a7a4e7)
C         3.48714917931289   -1.48851832785809   -0.37304748107422
C         2.92494267212348   -0.24390573778978    0.30310741316445
C         3.08347697299003   -0.31875882893782    1.84596694770448
C         2.29675070576316   -1.54004455098525    2.41086304632904
N         2.43853800044997   -1.71438441302574    3.87430203697112
C         2.03261394988559   -3.04003781763174    4.31906051500228
C         3.72116614358374   -1.17505002028687    4.41453688461814
C         4.86211685609790   -1.21031081994694    3.36002506422566
O         4.49977885463722   -0.52006448974699    2.12996454617544
C         3.23412886640674    0.18500462491322    4.79540739216568
C         2.78732423328243    1.08952774289075    3.87787922832531
O         2.61855035672736    2.26009661292705    4.54125306576480
N         3.02460799570769    2.09024359358496    5.87658296885518
N         3.34158246066461    0.80063215921393    6.00476248040230
C         2.56631937926141    1.09608718306873    2.41161079217196
N         1.15962154363574    1.36944247517820    2.05977147161692
H         3.30248989566211   -2.39363055879321    0.21614994189466
H         4.57337142785999   -1.52468581814434   -0.48531339388480
H         3.09063872624700   -1.56044006061100   -1.39009952254214
H         1.85613406281669   -0.25344826427514    0.06199341935403
H         3.44856941764381    0.66024731735396   -0.03145698559583
H         2.78857740850010   -2.42946287645845    1.99479313074054
H         1.22373493299103   -1.58629021161054    2.19286669724867
H         1.93125715564933   -2.96180380062967    5.40809260851567
H         2.78157025607435   -3.83254295336819    4.22515331399765
H         1.05898218707972   -3.32641004333299    3.90834436203167
H         4.09020547747578   -1.75792094111702    5.26678343440585
H         5.20146119981719   -2.23451218975419    3.16891217577709
H         5.66921621611867   -0.53877533941662    3.67411116422171
H         3.20180505593134    1.77041647004812    1.83084925166206
H         0.55511697255395    0.67271694942739    2.51012465641738
H         1.02956995128749    1.29016384980594    1.05463948938908
