32
 energy: -49.313962913796 gnorm: 0.139027223063 xtb: 6.4.1 (79825abcba525fcdf90b791dcacef51065a7a4e7)
C         3.62546851774115   -1.47972010719090   -0.47740522147113
C         3.15143471645200   -0.24415481909533    0.27823520736983
C         3.09502158198958   -0.36340485677259    1.82540960402312
C         2.43129871158669   -1.68817859172637    2.30917724369879
N         2.29183511944195   -1.62580583076341    3.78186568619699
C         1.83550666937267   -2.92807776452650    4.24640152090376
C         3.54003857464415   -1.11907964611717    4.42458407147113
C         4.72634508797051   -1.18856286258741    3.42315709851816
O         4.48409851682968   -0.33425568284750    2.26892421504779
C         3.39474642969319    0.33588784520794    4.73113924975125
C         2.82816998409558    1.18830191846576    3.83000898309913
O         2.75138399426232    2.40128366782073    4.43130767854373
N         3.26605414438919    2.26600291734717    5.73271174996520
N         3.72624636402714    1.02022616838518    5.86024159680316
C         2.30405190375696    0.87642226856709    2.47839490793482
N         0.83976635922376    0.72173657350255    2.57458738765863
H         2.88168236945580   -2.26804022370266   -0.31673673525554
H         4.65388037085159   -1.75577751250222   -0.23255452706378
H         3.72927757827417   -1.19076981694747   -1.52741452469016
H         2.17372315075623    0.10969585410214   -0.06737823010685
H         3.97456348349725    0.45427490749733    0.08261823448425
H         3.14978801942446   -2.49787263545421    2.12413318131239
H         1.44209184365405   -1.89542007664429    1.88545014568909
H         1.67908917093779   -2.91084104870155    5.33158404995587
H         2.61875480279104   -3.64556869874851    3.98268268528543
H         0.94624727719510   -3.22961596439304    3.68342011176966
H         3.79438235970358   -1.54220942875393    5.40362602774197
H         4.97876186416825   -2.16081789832345    2.98535225076484
H         5.70714983682018   -0.81929262439931    3.74359568651121
H         2.42128015666729    1.82699242838686    1.95064506083005
H         0.56616436699286   -0.09452321933939    3.13363311078715
H         0.25046046012132    0.77254116231577    1.74777044216944
