32
 energy: -49.311129143017 gnorm: 0.154067891665 xtb: 6.4.1 (79825abcba525fcdf90b791dcacef51065a7a4e7)
C         3.70026093964188   -1.54277156061995   -0.31652487012128
C         3.02086736695546   -0.33033882398688    0.30857777904348
C         3.10352080293400   -0.27307999043167    1.85810721441775
C         2.33843507401142   -1.54539880790050    2.33290536617411
N         2.39121709666574   -1.66350423598012    3.80783481067303
C         2.03142614602674   -2.98232380414348    4.30904016232384
C         3.63695813144941   -1.14350909354296    4.44470571328978
C         4.74048245532959   -1.27420239591329    3.35835385132594
O         4.51484238739721   -0.44184359516878    2.18487905862222
C         3.37338959244224    0.30463743663546    4.70047812937207
C         2.78228654357001    1.20579268441459    3.86491199388468
O         2.70029899453171    2.37948159270825    4.53908801767577
N         3.14519438458884    2.15386633589114    5.85362392375777
N         3.51662905045268    0.87462739241636    5.92835319244013
C         2.39269364084012    1.04668403678921    2.44303609501712
N         0.94496135476759    1.09906715016240    2.16260778868628
H         2.96694412924013   -2.33964385084561   -0.48302355529752
H         4.59666617821936   -1.91958142830291    0.18173456577182
H         4.06570708000050   -1.22201323875574   -1.29650004674125
H         1.95325789444990   -0.37485753472115    0.06607632067129
H         3.32738768283000    0.62131772593185   -0.14309262394142
H         2.63583935284914   -2.46467267147291    1.81083364108039
H         1.26691549649486   -1.42033091091235    2.13996045726795
H         2.35216777706824   -3.23640600911253    5.32636592016762
H         2.30074233944740   -3.85102664349036    3.70023587084519
H         0.95044843011864   -3.02795652578284    4.47655270722800
H         4.02208700534112   -1.66291770853114    5.33022429495544
H         4.89693710725212   -2.29374868810333    2.98860465559222
H         5.67544155020373   -1.00758670280450    3.86410766354811
H         2.85470830495494    1.87196389824729    1.89412663432791
H         0.33662928423029    0.53093818424196    2.76330054363612
H         0.72241954977672    0.95166889281536    1.18167062959607
