32
 energy: -49.307501732078 gnorm: 0.156072183331 xtb: 6.4.1 (79825abcba525fcdf90b791dcacef51065a7a4e7)
C         3.24777746792432   -1.93691902718730   -0.06820167155033
C         2.92906746396321   -0.53116221011174    0.42636258055504
C         2.87082304857681   -0.38865369933516    1.97150029763985
C         1.81521788171523   -1.25193823642728    2.72649842252694
N         2.42288297859063   -1.96356566478622    3.87387858437693
C         3.00580058717753   -3.27224916580967    3.61407876507446
C         3.48831262706673   -1.14240907088243    4.52074158196610
C         4.72004930146376   -0.98019458637391    3.58719014838926
O         4.25056033898917   -0.78954441985876    2.22190250959926
C         3.06132009049570    0.27441034255819    4.72645111181776
C         2.93876225528584    1.27394882397732    3.80690949853752
O         2.80868622792631    2.42966981992206    4.50416852049172
N         2.82671831725002    2.10661067312145    5.87243254285145
N         3.00068711787589    0.78866750861352    5.98539768871515
C         2.76241355945761    1.17440452708113    2.33795702564895
N         1.48785256009446    1.74782411875661    1.86467375383506
H         2.86712159776495   -2.65066874464216    0.67081338539608
H         4.32131251814834   -2.06665369986301   -0.22466862166497
H         2.72118897412223   -2.11976556200438   -1.00950918368407
H         1.90642998240073   -0.27429121672403    0.12835463227253
H         3.64205540413496    0.26986992031819    0.19483120181636
H         1.40521834971831   -2.00375024986117    2.03892899810623
H         0.91664027365604   -0.76095870534293    3.11703817253502
H         3.63932585025912   -3.64221144065452    4.42903785369370
H         3.54837424998356   -3.34124185987310    2.66609546801887
H         2.17643137935545   -3.96818790464982    3.45137778240338
H         3.75258345592820   -1.75865605018183    5.38829752181141
H         5.28549608750043   -1.91873523418336    3.59605348447362
H         5.36797771963726   -0.18711371727038    3.97735787515783
H         3.49348492638963    1.82206996782429    1.84611342242231
H         0.70427521526176    1.16457252566627    2.18010100195972
H         1.55297074277650    1.76575069623515    0.85031332476089
