32
 energy: -49.311613942677 gnorm: 0.146057286565 xtb: 6.4.1 (79825abcba525fcdf90b791dcacef51065a7a4e7)
C         3.66079641913727   -1.30908580970048   -0.40652334086007
C         2.92251727958239   -0.16970747856940    0.28563489356476
C         2.98003756939357   -0.35630507174316    1.82609728554613
C         2.20700449643587   -1.65350425425562    2.21246337446228
N         2.32678687265684   -1.80179806416296    3.68073201145045
C         1.71509309305867   -3.03024938840374    4.16722909129954
C         3.47539428575786   -1.17363228784324    4.39765523868094
C         4.66676188642862   -1.25566025955450    3.40320983229245
O         4.37773130031575   -0.43545132870978    2.23509326136182
C         3.43161582864054    0.28211882133236    4.73065429390237
C         2.97050255560451    1.18952654194942    3.82310808352530
O         3.14390707704468    2.41931895056699    4.36746313657378
N         3.71152973277211    2.23354810942769    5.64030739832010
N         3.91090724854277    0.92792366755626    5.82897076080182
C         2.32142616067440    0.94111330244396    2.51321496922254
N         0.89997243206396    0.94140582081410    2.90917208108005
H         3.88713056858520   -1.02116884572685   -1.43916920411884
H         2.99309967283410   -2.17064080339077   -0.48198553916807
H         4.58712416133423   -1.61514975647008    0.08848161087539
H         1.90779946149688   -0.15769670838462   -0.12762330976840
H         3.51869950287849    0.74291274764641    0.16193311394838
H         2.61312678920287   -2.57459502962776    1.77345416577821
H         1.12874575622956   -1.57169003447025    2.03445093171764
H         0.75267712336474   -3.17393172646215    3.66176342680320
H         1.54486051541183   -2.97081925321977    5.24672314943901
H         2.38867991802855   -3.83878918250106    3.86523604017422
H         3.68711947485906   -1.71424127906510    5.32779880940793
H         4.89959277329552   -2.30481773296056    3.18937453295408
H         5.62466569870512   -0.87654852730164    3.77699309055395
H         2.48490961082641    1.75032434208219    1.79607018443106
H         0.76116879274121   -0.01504947996855    3.25500012501493
H         0.24792791786552    1.05545848389976    2.13760305785499
