32
 energy: -49.314431246807 gnorm: 0.147394530726 xtb: 6.4.1 (79825abcba525fcdf90b791dcacef51065a7a4e7)
C         3.66673767597440   -1.48756659438954   -0.37289821409210
C         3.00581228008126   -0.29447195981186    0.30682592644487
C         3.01751491323637   -0.37472831324272    1.85749469016123
C         2.42984176517247   -1.73217194737437    2.34899411451951
N         2.44974406565935   -1.84944114889457    3.82480017433590
C         2.08542653438216   -3.13393403017028    4.40556876110909
C         3.60297823649425   -1.10249594441951    4.40789023540115
C         4.77232392687202   -1.07648039604904    3.38467916736543
O         4.41379680372815   -0.23185442608199    2.25381976713175
C         3.24286411543056    0.29643101547325    4.78912175034585
C         2.76321815837227    1.15902041997644    3.84809376929967
O         2.70905380015344    2.38657533576238    4.42164071155140
N         3.18711433517821    2.25219465377379    5.73702611595257
N         3.47850527435550    0.96772388310041    5.94969160796292
C         2.31224551886858    0.94374267289473    2.45198902071312
N         0.85036021485511    1.01579338720762    2.26487175651821
H         2.96229054137002   -2.00596108796339   -1.03282410968372
H         4.21031287698014   -2.14814869773222    0.30676919047218
H         4.46943473960127   -1.20368677662742   -1.05983183658132
H         1.96610686988762   -0.20960812069512   -0.02841972735976
H         3.50478152356090    0.65510994492291    0.07674995215651
H         3.05076538087562   -2.44698687427433    1.79260745167446
H         1.40527361386281   -1.87105686118763    1.98568295177151
H         1.27968785285279   -3.56015238805661    3.79605440742734
H         1.75937923092602   -2.77438087199864    5.38650361495761
H         2.97468222587222   -3.77240617497396    4.42084140306564
H         3.93809008762412   -1.59254877153056    5.32973675148554
H         5.09325888533324   -2.10146046913412    3.16769121218527
H         5.69815180041318   -0.63703656038605    3.77294611029660
H         2.72819710122259    1.74034780780065    1.82889147986243
H         0.43187595909722    0.10865132640266    2.50074128273203
H         0.59885375725710    1.18370686907348    1.29428513939612
