32
 energy: -49.312990490037 gnorm: 0.147596343938 xtb: 6.4.1 (79825abcba525fcdf90b791dcacef51065a7a4e7)
C         3.64545202808697   -1.35817606262005   -0.52911019117533
C         2.98133236101584   -0.21754301857275    0.23261377809853
C         2.99609337079954   -0.34003190691586    1.78049303724626
C         2.31423063207575   -1.65533573500231    2.26487269953632
N         2.31354157215218   -1.66461954235211    3.74543509969871
C         1.56858483942398   -2.74369476460351    4.37834702327151
C         3.59699132348011   -1.21653687746115    4.36175390251239
C         4.72137752330368   -1.25584441525289    3.28973822085659
O         4.39689693744346   -0.36315541532045    2.18583768256698
C         3.36145530740965    0.21581630309887    4.71517066432939
C         2.99935921116229    1.16451954653850    3.80494930372027
O         3.06594913006471    2.33203829772453    4.49142338996103
N         3.59374666554314    2.10976236485904    5.77550359337525
N         3.70678663455708    0.78641260969375    5.90186749891454
C         2.37825587857293    0.97507464014779    2.47184370029662
N         0.94116473505596    0.87614528285687    2.79167935669899
H         3.71001610435590   -0.99236419999738   -1.55988366955132
H         3.01266098199706   -2.24711404201438   -0.47293854073996
H         4.63473475385570   -1.71866777875127   -0.23220358294319
H         2.01008581460794   -0.14633102996498   -0.26956930102646
H         3.46432882018414    0.74448480377210    0.02088769005208
H         2.99470842428867   -2.39442892005254    1.82129196401526
H         1.30941235532410   -1.74733212286769    1.83720366413210
H         0.53593726920254   -2.55861613385317    4.05933361539765
H         1.86106310114921   -2.66718284332852    5.43021245865284
H         1.82524247113251   -3.73934296959111    4.00222586253680
H         3.87281178686257   -1.90611564739673    5.16838696222757
H         4.79045614617825   -2.30664265753010    2.98688781979648
H         5.67545502752264   -0.85431207728201    3.64963716308592
H         2.61534234217353    1.85299271777666    1.86447573846399
H         0.91338960684874    0.25464664900259    3.60815851617067
H         0.42966655507883    0.39579119334148    2.05607186820388
