32
 energy: -49.314078113362 gnorm: 0.149630140056 xtb: 6.4.1 (79825abcba525fcdf90b791dcacef51065a7a4e7)
C         3.94615121094366   -1.28314811253695   -0.34700300449438
C         2.91000101139825   -0.36211749581211    0.28578247183799
C         2.93272176465358   -0.39954679604107    1.83795335749840
C         2.16173051237434   -1.60041069936469    2.46491668070220
N         2.18821465461218   -1.64400957943195    3.94462929920679
C         1.86135272186939   -3.01890268512318    4.29501710862829
C         3.51642918851782   -1.16051447645784    4.42415913542614
C         4.64447023326310   -1.33093328903495    3.36893978452612
O         4.33262451467030   -0.46266967312401    2.24215309097752
C         3.38561628913983    0.30406809414554    4.68854932487048
C         2.96792529053907    1.20574035558426    3.75464582746051
O         3.00502486696792    2.39765094501420    4.40021046826778
N         3.36458634470870    2.18124503347171    5.74212060948322
N         3.66870848442529    0.88999834729186    5.88421977003895
C         2.42825450911297    1.02710850809029    2.38509283365695
N         0.95304602552855    1.03146645016739    2.35263109017208
H         3.74670448036945   -2.34532467805077   -0.16677329381959
H         4.97028867973512   -1.00536839158702   -0.08667366165694
H         3.89583136794001   -1.10086244328321   -1.42451308699692
H         1.92793678673955   -0.54913363288250   -0.16271912074058
H         3.18972602698809    0.66457603891840    0.01882675814432
H         2.39154540489308   -2.54647267004167    1.95675874002409
H         1.11065211966157   -1.40130926072210    2.22697392454295
H         1.42639235933451   -3.07438161786265    5.30006249649936
H         2.76278862982266   -3.63233691493228    4.20051708963812
H         1.20987485246412   -3.45481711772177    3.53068026253270
H         3.72546656317389   -1.60153307567626    5.40602404488963
H         4.65620747614830   -2.40875226154922    3.17187210037311
H         5.62700937724810   -0.99353805209506    3.71793926917876
H         2.88967737289516    1.78637900991542    1.74756381751893
H         0.73357732853513    0.36357626515349    3.10057923176093
H         0.65035834223747    0.73649312295524    1.42804484650191
