32
 energy: -49.320354171251 gnorm: 0.144475818930 xtb: 6.4.1 (79825abcba525fcdf90b791dcacef51065a7a4e7)
C         3.66723474269152    0.23802263005289   -0.45117359978925
C         2.90734231244111   -0.87011337824870    0.26779800423431
C         3.06819272438723   -0.74052446325956    1.80678646441464
C         2.17117091746388   -1.77751773088107    2.54812407584033
N         2.13194926916761   -1.68260676674234    4.02514989149650
C         1.54540230059383   -2.87638476391473    4.61743202830973
C         3.45291903944721   -1.29806196299328    4.60397142939325
C         4.55907942963846   -1.58307031028754    3.55031756642150
O         4.44166278821048   -1.01020028248207    2.21659684641780
C         3.36264381459455    0.18441078377395    4.76565386444202
C         3.09738091120297    0.99122400356233    3.69872257437837
O         3.04591857178244    2.26078106612756    4.17238640556296
N         3.40690247656859    2.25403410683810    5.53124029754800
N         3.59712057976622    0.97265746595371    5.85044465747715
C         2.75474779367100    0.76716065672989    2.27351121100302
N         1.34069153638442    1.11440013780723    2.03438267451295
H         3.86742289649506    0.09076396319313   -1.51828202417633
H         4.65157443544793    0.41441168643258   -0.01100003874085
H         3.00875205663584    1.10972780273737   -0.39356480890033
H         3.31215303768644   -1.85452107584736    0.00770452802320
H         1.83131123805524   -0.85786839174298    0.05421374966717
H         2.52949966533406   -2.76314651458182    2.22222679464931
H         1.13088867423776   -1.61744598610667    2.24281471029124
H         0.49351268317495   -2.84267071754531    4.30957450227162
H         1.70356546230696   -2.74495014553211    5.69238684568427
H         2.06054196769195   -3.78977984852643    4.30279547469875
H         3.80031416222299   -1.72889450125194    5.55051919207707
H         4.60003561957873   -2.66535697290209    3.38404868713067
H         5.54073988157328   -1.23678620307896    3.89302651636386
H         3.38707546409018    1.44335015932152    1.69146700002498
H         0.82092496500597    0.43423422831682    2.60085180357973
H         1.02420243335807    1.12356875278931    1.06833950965131
