32
 energy: -49.315818638814 gnorm: 0.152323055634 xtb: 6.4.1 (79825abcba525fcdf90b791dcacef51065a7a4e7)
C         3.81913974858895   -1.46091089269546   -0.41675689371209
C         2.98307946269432   -0.39022227676284    0.27385961794646
C         3.04093369374662   -0.35754555179708    1.82522570689890
C         2.24298058457340   -1.58158326024875    2.36798452575788
N         2.39670677608008   -1.65161723216293    3.83890777124952
C         1.96932334898732   -2.92271677625340    4.40599747924905
C         3.71727816804006   -1.17244195658822    4.34324146171647
C         4.83588761210684   -1.15813487267602    3.26457782195743
O         4.43005188950939   -0.20383598512335    2.24213530467437
C         3.38593298207785    0.26242363157586    4.59500996909093
C         2.86135409478479    1.20382179641303    3.75940190625621
O         2.65437662303127    2.31971345084843    4.50151177598183
N         3.18007745741112    2.07457438727026    5.78228664706056
N         3.54976595704104    0.79384029323283    5.83752288486019
C         2.32981645132023    0.96857581999522    2.39523317306041
N         0.86009832255559    0.96513501995028    2.52649472470542
H         3.36736744079408   -2.43373307429668   -0.19315102033428
H         4.79058350305304   -1.51561545791801    0.08032955404450
H         3.89881873089991   -1.18318170491889   -1.47189000601334
H         1.93838116880666   -0.43595160146157   -0.05339128919428
H         3.47605861673455    0.52952043957125   -0.06474920821348
H         2.71452063492527   -2.47899997505133    1.94565071470972
H         1.18737175464703   -1.43171318270987    2.11450302312758
H         1.74641669625999   -2.85959167915685    5.47777754267083
H         2.59511879303635   -3.80544239664434    4.24169884970825
H         1.00871554300795   -3.10321284825614    3.91273342075642
H         3.97116050954339   -1.59894397762803    5.32093901032464
H         5.11574522294525   -2.09199793264188    2.76433121785062
H         5.78427795650262   -0.71347840683746    3.58684437581063
H         2.58453898496945    1.85398873411522    1.80616069525456
H         0.61035842383196    0.30249036610313    3.26959785918821
H         0.50106113902405    0.61885680059917    1.64067729753087
