32
 energy: -49.316053373396 gnorm: 0.152791656262 xtb: 6.4.1 (79825abcba525fcdf90b791dcacef51065a7a4e7)
C         4.05028009279650   -1.29711398970127   -0.26218760377816
C         2.88750079506080   -0.53305877899784    0.35949240305562
C         2.96679661110302   -0.43577525814094    1.90720029846972
C         2.21840580114043   -1.67624340034025    2.48229560335783
N         2.37188607341376   -1.78258788752452    3.95106595956259
C         2.23423936528400   -3.17439307918867    4.35587836662931
C         3.62963244956110   -1.16436404272033    4.46462565461975
C         4.69523177936516   -1.29531173843617    3.34107868122900
O         4.37762932223203   -0.36184034305600    2.26938024358182
C         3.24912420966256    0.26332127147330    4.68585945548184
C         2.77997658854617    1.17005222675764    3.78176109364276
O         2.63721751398358    2.39199811515866    4.35206717222049
N         3.03006623653497    2.23532863352914    5.69294873232028
N         3.41649187696054    0.96675506182921    5.83922506433843
C         2.39419295975343    0.99809408963149    2.36034255082875
N         0.99173113672295    1.40292447915477    2.14464369457274
H         4.13920252376056   -2.34477856266777    0.04598855855423
H         4.86347197708819   -0.63075659793702    0.03526370835141
H         3.87126596786422   -1.26584188001901   -1.34096660252667
H         1.91879705575832   -0.91180687722708    0.01490308461712
H         2.89818732411049    0.46960785874666   -0.08565528248113
H         2.66409409823399   -2.49546469324424    1.90237229051657
H         1.14160745222821   -1.57172065491974    2.30735495001433
H         1.27508773823495   -3.64647846086170    4.11185334878777
H         2.46921237106139   -3.27419510896901    5.42013667409075
H         2.95276273408206   -3.75566167335820    3.76893151069765
H         3.84202077813274   -1.66892709455314    5.41465725682735
H         4.79943635787379   -2.30373531676986    2.92527769699613
H         5.63937370935224   -1.00740735947156    3.81723667987314
H         2.94095118851514    1.72520164255447    1.75353446900410
H         0.37101091394761    0.92161434393630    2.80548950236574
H         0.64153330891935    1.12304371218217    1.23221997129539
