32
 energy: -49.315258021025 gnorm: 0.153058813780 xtb: 6.4.1 (79825abcba525fcdf90b791dcacef51065a7a4e7)
C         3.64967427292296   -1.40237873752592   -0.40307493936817
C         2.93675090323109   -0.25617742090775    0.30423327057017
C         3.01589808225273   -0.35479987543148    1.85186403526469
C         2.32168577689322   -1.66851959979795    2.32281455352118
N         2.23883138921794   -1.68511462393274    3.80099298088828
C         1.77654303710385   -2.94904427496724    4.35661219015137
C         3.57076114874847   -1.24665544687026    4.31244864463564
C         4.63207881021216   -1.37939732832883    3.18506607376357
O         4.44230068952149   -0.36688704873357    2.15570466443039
C         3.43726360614431    0.19538501414844    4.67948271691102
C         2.97007825256566    1.14782204917848    3.82259536827439
O         2.89693562777450    2.30757687345019    4.52145146689654
N         3.46521400721075    2.07731717119157    5.78670992160269
N         3.81696482367819    0.79158069197039    5.84286613120963
C         2.43852002068098    1.02561824082918    2.44370400825735
N         0.98945887916231    1.29096237464440    2.52812625271705
H         3.75859176723189   -1.10029083991654   -1.45062478830812
H         3.01153113295399   -2.28915649137544   -0.41682427216044
H         4.65339963116484   -1.61047843075931   -0.02095185569743
H         1.87089622686566   -0.10966365927841    0.09670884683865
H         3.42635005292889    0.68504996990349    0.02495791368172
H         2.76853965219273   -2.55874343171340    1.86032588118093
H         1.29924224101022   -1.58416543936036    1.93743485107802
H         0.68763393693147   -2.87474142799081    4.46216179538447
H         2.13863643184016   -3.00355721870348    5.38798759066617
H         2.10382426991817   -3.91431205989837    3.95686137388384
H         3.87705461995911   -1.72301391261903    5.25134142372424
H         4.66559524292970   -2.43240561025259    2.88387281715199
H         5.54447030369315   -1.06193621813443    3.70254029280700
H         2.90326878430359    1.84009151280341    1.88113145499997
H         0.58036711052727    0.77711925296452    3.31697312878702
H         0.45823872085012    1.12757496154611    1.67689273027984
