32
 energy: -49.317448315935 gnorm: 0.142623617864 xtb: 6.4.1 (79825abcba525fcdf90b791dcacef51065a7a4e7)
C         3.72609739459925   -1.37973643002346   -0.43470528991955
C         3.06957523265115   -0.20052679289729    0.27294248435397
C         3.07347914330430   -0.35771643419387    1.81774920776670
C         2.48464905264557   -1.73493079889244    2.24919369495970
N         2.25010194062430   -1.73268399821811    3.71108777600404
C         1.74288452785117   -2.97536167360240    4.27537854425691
C         3.44381512651900   -1.15355089064289    4.39484495941977
C         4.69035594056062   -1.15650477967845    3.46687172672933
O         4.45280880732292   -0.33107472242555    2.29085544803606
C         3.27136561352484    0.29818252204757    4.70265585840271
C         2.79806329355532    1.21969438081952    3.81583276795724
O         2.94747235149985    2.45001547613156    4.36607622967361
N         3.43912251756258    2.26464980218482    5.67020754332282
N         3.72491017909273    0.96770286102625    5.79770065588678
C         2.29220987867263    0.89348051356342    2.46064786079097
N         0.82443759592443    0.82780817816309    2.59719269466821
H         3.16711862017705   -2.27724031957910   -0.14745922396807
H         4.74697182923294   -1.51597011232049   -0.06995021135308
H         3.70865883004683   -1.22339590391934   -1.51731402105910
H         2.00324436209250   -0.07938971734571    0.05193763714482
H         3.66800925640014    0.71187481017582    0.15887632928295
H         3.19197302429732   -2.54553647333012    2.02854947968138
H         1.50034988998633   -1.85049986892662    1.78140862938165
H         1.30092106841216   -2.85887788833780    5.27211546304540
H         2.60829171169048   -3.64521164202961    4.28916001925561
H         1.02491606178656   -3.51805377202404    3.65195077386708
H         3.69981185033888   -1.67697429101810    5.32368635729174
H         5.00140555097551   -2.12069842819111    3.04944398752638
H         5.51194628504811   -0.74276616290903    4.06254699054971
H         2.59770989379190    1.75828605417278    1.86514209213332
H         0.72011574064658    0.09350644154779    3.30683213854496
H         0.47481739965049    0.43658182552280    1.72644790974543
