32
 energy: -49.310740566910 gnorm: 0.148761382444 xtb: 6.4.1 (79825abcba525fcdf90b791dcacef51065a7a4e7)
C         3.84297529775153   -1.32393961537414   -0.43618640700387
C         2.81977786063434   -0.46776251885165    0.30025766052171
C         3.00163656183180   -0.36280332018047    1.83878377213422
C         2.41540739212000   -1.70820835675493    2.36395541776243
N         2.28045352722162   -1.68444304254155    3.83819229303746
C         1.98812577568846   -3.00939014231241    4.36639779847697
C         3.57567635030281   -1.13671634510050    4.33845574097247
C         4.71423807144710   -1.20661896504905    3.28308952109205
O         4.42575035703653   -0.33558005233654    2.15222978034124
C         3.38089758099867    0.28632096091886    4.74960330562794
C         2.85457575332994    1.18464704071442    3.86889339597781
O         2.72080828568649    2.36845470034150    4.51657125662033
N         3.23989166171250    2.18552577820721    5.81037505057449
N         3.66421092583389    0.92520171743311    5.91778487186145
C         2.40434449990276    0.99178687162857    2.46927700800559
N         0.93574325409752    1.12060807389911    2.40660103781548
H         3.63543640812620   -2.29219040482081    0.03274730131319
H         4.89075832181995   -1.01442078678326   -0.44798979706082
H         3.56748967612808   -1.41791052609294   -1.49073145905967
H         1.81687346414110   -0.81647237965583    0.02977096255067
H         2.86712114956090    0.53074288295892   -0.15180054330409
H         2.91226782035841   -2.65474803673794    2.11243012780112
H         1.41977003301199   -1.75501982713369    1.90839109333247
H         1.49614764242415   -2.82598843178730    5.32905349521443
H         2.89907888514131   -3.59170892690902    4.53636181883333
H         1.29619418741979   -3.45596146893963    3.64496841984594
H         3.84946460610375   -1.69779350275476    5.23983531359898
H         4.93252401339000   -2.20591166784422    2.89011050752745
H         5.55913110485374   -0.78286140782639    3.83771069958878
H         2.92580673412792    1.77278276315795    1.90894804653834
H         0.54904331526240    0.29193549605528    2.87290044726413
H         0.52159229843122    1.05478395638785    1.48051519812722
