32
 energy: -49.311891916137 gnorm: 0.150951547205 xtb: 6.4.1 (79825abcba525fcdf90b791dcacef51065a7a4e7)
C         3.32147375443364   -1.79107505980304   -0.15900335680091
C         2.72006206259970   -0.50788927638484    0.40140748522826
C         2.95890253733582   -0.37566502299655    1.93000933042235
C         1.97031796706590   -1.24095146570224    2.76879686317985
N         2.53432372283891   -1.96460190139729    3.93085505263121
C         2.85293647301657   -3.38520328828271    3.91299487419849
C         3.65668339234075   -1.13167753330925    4.45470233334369
C         4.79871904053082   -1.09372847475898    3.40145903098231
O         4.35013128877766   -0.79712194710959    2.04810346547108
C         3.08625928107926    0.21540059417695    4.75803894434254
C         2.72865245736448    1.17784865546838    3.86056168143357
O         2.55829146373604    2.36004391175083    4.50256824959694
N         2.64583009261188    2.06600759172370    5.87469012200845
N         3.02090792816127    0.79085029954848    5.98997647835529
C         2.79696820401365    1.16089934800579    2.37938817563608
N         1.63973960245085    1.87907543268962    1.81162248188414
H         2.53690401282724   -2.52591310379018    0.05299705572481
H         4.28344995535074   -2.10709144786884    0.25151573554874
H         3.43976599888211   -1.64064399787730   -1.23611317924521
H         1.65699996400326   -0.43627335483091    0.14577300692261
H         3.16028021643766    0.34267504768141   -0.13371806443811
H         1.47403904298224   -2.02328107753911    2.17910182901644
H         1.20247721074220   -0.55205042255314    3.13874258866618
H         3.07815200104429   -3.49688525721950    4.98032320519606
H         3.75620926018669   -3.65912134568814    3.35902225182118
H         1.92809602270777   -3.93092675516021    3.69966026326906
H         4.00606002062013   -1.57522922179663    5.39462285237644
H         5.19914607940117   -2.09929733322354    3.23070592691269
H         5.57420854161520   -0.36158404483760    3.65364925856190
H         3.67367777240273    1.74218911905062    2.08050939530401
H         0.76456521152937    1.49259128556852    2.18360367971389
H         1.65621419528710    1.72258835894494    0.80726736470209
