32
 energy: -49.312380512440 gnorm: 0.151223058162 xtb: 6.4.1 (79825abcba525fcdf90b791dcacef51065a7a4e7)
C         3.89996867077170   -1.35454591874134   -0.35492060252229
C         2.89199962975224   -0.39551592220592    0.26683655226718
C         2.96759145198964   -0.34646607500363    1.81700802748324
C         2.24097263899210   -1.58996216113780    2.41310130704831
N         2.24401867769731   -1.72991556910770    3.88706041552365
C         2.04579097822426   -3.12013949095951    4.27167009456703
C         3.51577473065962   -1.13526530546650    4.39391129153005
C         4.66128846520021   -1.21358153699577    3.34669026295742
O         4.36091844637683   -0.30824313297089    2.24627310113858
C         3.28750703013201    0.28032987063662    4.81343533417648
C         2.85103926310279    1.17268872138882    3.87917309117955
O         2.82086008107740    2.41364711231768    4.42496830751075
N         3.45574691428722    2.32892671456318    5.67659922912734
N         3.71489127512546    1.03360881142853    5.86367187684465
C         2.35724826609794    0.97936567797057    2.49438937984905
N         0.88310447603084    0.96516686535372    2.43105461062549
H         3.47905879434035   -2.35425050240959   -0.20030357960481
H         4.92487443151532   -1.21064608710224   -0.00470422291489
H         3.94394256825618   -1.24725333227315   -1.44273617685905
H         1.93832079187869   -0.83658352782236   -0.04386409777950
H         2.88894818947513    0.65904629358045   -0.03565355590984
H         2.73369167052141   -2.45122622957451    1.94243710373022
H         1.20186881241284   -1.70942400495491    2.08596828232181
H         2.00897388029913   -3.16193259196299    5.36678766645842
H         2.81930416741681   -3.78099612722479    3.86822945107747
H         1.11015450116914   -3.46714235947604    3.82130467543873
H         3.92984508789185   -1.61764975301100    5.28727779330816
H         4.76046009141696   -2.24108266684694    2.97916668263433
H         5.58485262619039   -0.75019108468559    3.71181747727836
H         2.69063791900938    1.85423395583353    1.92932050779752
H         0.50450181443042    0.09276503086766    2.81737738654458
H         0.69314518819063    0.80441268663190    1.44537596887474
