32
 energy: -49.315710571947 gnorm: 0.147118337635 xtb: 6.4.1 (79825abcba525fcdf90b791dcacef51065a7a4e7)
C         3.86320151203783   -1.40819944231034   -0.30190719269886
C         3.07224890252700   -0.25885488707701    0.31105541010943
C         3.03128219559172   -0.31773012951447    1.86218631076039
C         2.35048281245654   -1.65760175962379    2.27551529435862
N         2.18031170178826   -1.70785027499601    3.74543657911243
C         1.87251665090717   -3.06992959774531    4.15767862995055
C         3.39508395913526   -1.12655001567846    4.38908910828899
C         4.65774346327598   -1.24637473001982    3.49112471330751
O         4.39507251950233   -0.34438877925848    2.37837899720475
C         3.29745764763154    0.32546137698704    4.72694749437809
C         2.78655586074873    1.22667898533891    3.84013265470313
O         2.95357333374478    2.46822925627762    4.35920781065992
N         3.58545766108676    2.31192504114532    5.60545417149257
N         3.79059194898869    1.00758508184113    5.79681153660310
C         2.29000250940186    0.97679785075827    2.46542414880244
N         0.82725991786227    0.79459124052649    2.53248897418275
H         3.43904760966826   -2.41011251440919   -0.17250678596433
H         4.79678353529571   -1.35742641897879    0.26345747110551
H         3.95050699448811   -1.21284558470343   -1.37475515583517
H         2.02729545172900   -0.21999465738812   -0.01626862737333
H         3.54760997920229    0.66665423912900   -0.03690400187557
H         2.95837233801135   -2.49618134231342    1.91037526486457
H         1.30181755662344   -1.75418875456496    1.97220678180040
H         2.16868889366575   -3.05773557903559    5.21338596147895
H         2.28828742897558   -3.90633550043313    3.58725920079917
H         0.79471824223984   -3.25625874290551    4.10984915376627
H         3.61697022669075   -1.61523846593468    5.34522864154070
H         4.73516224269462   -2.28237026264454    3.14271868676487
H         5.51881027864820   -0.78542484906256    3.98822480542650
H         2.37472051722515    1.80885580371955    1.76090416151663
H         0.60588546848385   -0.11217067690559    2.95962642873443
H         0.42789802971375    0.66898876767375    1.60608575786003
