32
 energy: -49.311213648902 gnorm: 0.148801585250 xtb: 6.4.1 (79825abcba525fcdf90b791dcacef51065a7a4e7)
C         3.40871874341767   -1.47725485765035   -0.45866988970549
C         3.21681237265000   -0.16881124727691    0.29860770218818
C         3.12766419059396   -0.34270219293302    1.83905120140923
C         2.45468427930518   -1.66887247718060    2.30590775192652
N         2.42759039165343   -1.76299392594499    3.78325631172321
C         2.07632118101190   -3.06225389738208    4.33866143613397
C         3.59151641633962   -1.14847740027521    4.48718519143242
C         4.80137808072042   -1.11688769263837    3.51238065443872
O         4.49399508566328   -0.29902910686666    2.34730523575220
C         3.27480794863288    0.29439965975071    4.71038426246379
C         2.79632462259134    1.14071851955329    3.75411418052749
O         2.68601382636824    2.33299024614729    4.39058931621786
N         3.21098853411574    2.20666646119961    5.68877368701266
N         3.56167046260096    0.93334662053065    5.87766312581432
C         2.31103537273770    0.93911116433361    2.36750749021360
N         0.84189028567534    0.99513590772669    2.49315288819988
H         2.71290021523094   -2.22956584556752   -0.07092570079568
H         4.38118094556363   -1.95731222050245   -0.32580647318617
H         3.36071475922302   -1.36812376062557   -1.54613214129982
H         2.26687239375448    0.23308821372451   -0.07108097156271
H         4.04022674317416    0.53099697818622    0.10921849956438
H         2.97818848419264   -2.50618287357657    1.82535882096463
H         1.42641705605398   -1.64367023818717    1.92768125551232
H         1.70146840381683   -2.99697239127245    5.36706232046453
H         2.90410329634060   -3.77360176135183    4.25754739682568
H         1.33400016323615   -3.43319607103363    3.62450666888315
H         3.75913005275755   -1.57652980238647    5.48263962578804
H         4.95095352162016   -2.14616694762048    3.16759293125880
H         5.82318505446322   -0.77425254675772    3.71120473058715
H         2.51567318162187    1.74877186308190    1.66151959201293
H         0.51410140605582    0.30989920747127    3.18356967478948
H         0.42448824795645    0.90426197020808    1.57065286934182
