32
 energy: -49.311053313911 gnorm: 0.154724682502 xtb: 6.4.1 (79825abcba525fcdf90b791dcacef51065a7a4e7)
C         3.98305355934353   -1.17439279004034   -0.28474531369516
C         2.89248717488417   -0.31224789791775    0.33950883143420
C         3.04676331857616   -0.39348355546152    1.88247716373600
C         2.30211265091076   -1.65836681003629    2.40702492417551
N         2.25302922019137   -1.78553031346849    3.88132881243231
C         2.10056565362379   -3.16886967051631    4.30919382449226
C         3.47863273793832   -1.15916997029517    4.45877054515981
C         4.67750298359560   -1.22082559795253    3.47189884820094
O         4.41179633972114   -0.28846494822864    2.38521522281109
C         3.12803636453659    0.26754751283235    4.73001891595317
C         2.78402780078003    1.14832587613164    3.74739897772943
O         2.88187718404818    2.40540036641828    4.24636806723472
N         3.30907905127468    2.25336169318288    5.57724056636880
N         3.52935358116171    0.96199241693597    5.82991619565913
C         2.32548787422732    0.96717463316637    2.34891599781944
N         0.85418454610676    1.05516236006683    2.27936393558358
H         4.36109346349923   -1.99875723546468    0.33006351385625
H         4.93528849772471   -0.67257622774360   -0.47241325086716
H         3.65239841373463   -1.52731822900985   -1.26601945358951
H         1.96693237624424   -0.73625341951616   -0.06564112358433
H         2.97609889482312    0.71279599972554   -0.04246647337332
H         2.81681327674210   -2.55810616383853    2.04422334050881
H         1.24638002436510   -1.64150115910560    2.11348091239860
H         1.11354767801863   -3.57218562523263    4.05323207898723
H         2.33866127828476   -3.22176568025521    5.37611977668233
H         2.72704697437824   -3.92314169018130    3.82211016365203
H         3.70823368214007   -1.61631664446458    5.42859168543611
H         4.67034793499127   -2.23766132963685    3.06365741530697
H         5.65473006445154   -0.95783902297896    3.89247540717455
H         2.77014316852746    1.77776575453419    1.76490426926277
H         0.48997609867238    0.45962849083908    3.03193409345828
H         0.57185214074928    0.58777717630488    1.42185106630205
