32
 energy: -49.318814832989 gnorm: 0.144899439643 xtb: 6.4.1 (79825abcba525fcdf90b791dcacef51065a7a4e7)
C         4.11457447596147   -1.22115087121008   -0.31781589547742
C         2.95855691347518   -0.46880307450338    0.33019512022182
C         3.02483852954584   -0.37249733609254    1.87857607678804
C         2.21255191364128   -1.60250040408458    2.38539708430169
N         2.31137893303381   -1.77431809537722    3.85266106533996
C         2.06248445560076   -3.11129015040027    4.37275590086965
C         3.53051257630560   -1.10977422220281    4.40035149110359
C         4.70352117575729   -1.23909447982762    3.38924609553138
O         4.43576472975361   -0.37519705094783    2.24785859755932
C         3.28103271646640    0.33538367190336    4.68547377432107
C         2.82758171234622    1.23497795549062    3.76636188527921
O         2.74529742009499    2.44664192143675    4.36958709093682
N         3.21233781159155    2.24988269711855    5.68107398807634
N         3.51066296136048    0.96346610667558    5.87116583232978
C         2.32353933620033    0.98043789522641    2.39523829190496
N         0.84901853577057    1.00668090934372    2.34612088668139
H         3.91158333037624   -2.27411594026087   -0.09300494687740
H         5.06207957122537   -0.91806792370280    0.13403066719399
H         4.09340805587773   -0.95556950049195   -1.37885625626206
H         2.04536881974800   -1.02913164057999    0.10063410051714
H         2.89085234137009    0.54332236326569   -0.08769151216669
H         2.68311172811155   -2.43642590293208    1.84761055145968
H         1.16656058718758   -1.46747029755740    2.08758349710425
H         1.01372831568445   -3.42464153704372    4.30713484172917
H         2.46076808280707   -3.30801443493165    5.37299997397135
H         2.55322594203973   -3.89088112427548    3.78109187104725
H         3.82319768643518   -1.57947557026424    5.34690776773508
H         4.76214157103674   -2.26021488351008    2.99612532977653
H         5.67902872480553   -0.89838721682226    3.75438022261793
H         2.58577409172808    1.69227936645832    1.60760853069697
H         0.46086601432295    0.36888665607929    3.05055422838264
H         0.51381937390374    0.64159403389071    1.45851629500036
