32
 energy: -49.311822001315 gnorm: 0.144905130390 xtb: 6.4.1 (79825abcba525fcdf90b791dcacef51065a7a4e7)
C         3.68991230295795   -1.20471914193858   -0.52344893579217
C         2.86491208574184   -0.27470646820629    0.35789841620878
C         3.03651001757352   -0.39498429186366    1.89648186582082
C         2.33503682974116   -1.70967073539681    2.35377775187414
N         2.29766631486217   -1.85674024127016    3.82657294295425
C         1.67892240844660   -3.07151699660468    4.33786030184723
C         3.53559835088655   -1.22710199941336    4.37333626789915
C         4.73038242141186   -1.24840395957742    3.37983524846298
O         4.45931549903828   -0.41563708487857    2.21630623916901
C         3.36364265049513    0.23062154420078    4.65170573384187
C         2.91202617322190    1.19829431086500    3.80358644273980
O         3.11187930384797    2.41767425201170    4.36211326258351
N         3.61578736838661    2.15823737612309    5.64881756863616
N         3.73586076220049    0.83941677211394    5.81097502996847
C         2.39730542095234    0.98201064964535    2.42986405004470
N         0.94662984297532    1.09700121079923    2.67405733613389
H         3.45772329815355   -1.10563344398116   -1.58963423528790
H         3.25898343925465   -2.19806626935381   -0.37732469372455
H         4.76091619072287   -1.16833828361954   -0.30341431958181
H         1.79152788348946   -0.34719995100007    0.15012472794417
H         3.19648597105731    0.74901923467747    0.14422695075613
H         2.84155755968725   -2.49758369595961    1.78045189672274
H         1.31901309104105   -1.67906085913377    1.94416487557649
H         0.60559969941836   -2.85627566207250    4.40137553280443
H         2.01609628321629   -3.27294138266186    5.35940838589384
H         1.72132844311141   -3.93659463389689    3.66816035548594
H         3.91914310746485   -1.69392412441477    5.28833530018691
H         5.02391621621616   -2.24919497700512    3.04379594472516
H         5.57003386719091   -0.78258106455701    3.90805284920123
H         2.71117505984498    1.79556747740096    1.76997229551544
H         0.63270124766298    0.35811196689336    3.31371485850520
H         0.30989890923658    1.13162829817819    1.88231022011237
