32
 energy: -49.315120940367 gnorm: 0.143954413972 xtb: 6.4.1 (79825abcba525fcdf90b791dcacef51065a7a4e7)
C         3.57294886539188   -1.31814437237975   -0.43445231287023
C         3.03388766621300   -0.10621916458903    0.31586255857476
C         3.03110855795092   -0.32573087430725    1.85305432439376
C         2.26684555490061   -1.60185400455164    2.31888310355619
N         2.21513069514847   -1.71465591644822    3.79426542664454
C         1.71986970197123   -3.01203545178726    4.23183172278746
C         3.48955672802542   -1.16488053729095    4.34331507733206
C         4.67065520976473   -1.35805288991760    3.35200389770846
O         4.42954877036965   -0.43372414795635    2.25279428725983
C         3.41421430616225    0.30575558846174    4.59544434896687
C         2.83470422594965    1.28187118181255    3.83978517767970
O         3.04554178530261    2.46473225396013    4.46840916599940
N         3.80346074169533    2.20709374109949    5.62427250163174
N         3.95050402382217    0.88352945014371    5.70524341448050
C         2.28045730647725    0.93782623403806    2.50814231908514
N         0.82669038286809    0.76401106026419    2.69161666570848
H         3.84065147210113   -1.08703649530992   -1.47146979912303
H         2.98224326413282   -2.20031323450813   -0.17631380928683
H         4.55578609859328   -1.39873515724712    0.03917647620628
H         2.00191735868227    0.18407321896338    0.08926495276072
H         3.71520669601562    0.74328149574562    0.18258067441639
H         2.84384240019313   -2.41349302692444    1.85586110512929
H         1.24228047713715   -1.49866317158254    1.94386047300837
H         0.68534323303807   -3.11041127728819    3.88188624250468
H         1.83260364757572   -3.11374906635308    5.31569698088736
H         2.27687582845162   -3.88158341740498    3.86812012612394
H         3.76237646289412   -1.66942552489254    5.27779700059087
H         4.69321792259210   -2.38861814869677    2.98039477840173
H         5.63697620246313   -1.12638660184641    3.81414437615860
H         2.40853709293026    1.73922037790290    1.77519690066428
H         0.70803930134207    0.14294235599654    3.50023636066800
H         0.32544409375369    0.47579255012596    1.85545217104384
