32
 energy: -49.310726915893 gnorm: 0.155669425916 xtb: 6.4.1 (79825abcba525fcdf90b791dcacef51065a7a4e7)
C         3.74304678923584   -1.51342122964579   -0.31004905909089
C         3.02082579885298   -0.30792764966137    0.27944577316726
C         2.95586290609081   -0.36716109180359    1.82974343746164
C         2.41554035091171   -1.72095063529023    2.38191191074675
N         2.29513318475232   -1.76008889584038    3.85708037843452
C         2.18540933615523   -3.11874811486120    4.36888814875249
C         3.53105029225457   -1.15325559128785    4.43338972661687
C         4.69166971347637   -1.13026400725058    3.40021936378395
O         4.35310106299139   -0.31189349368769    2.24418360271248
C         3.30730546201818    0.29738776450865    4.71193664727030
C         2.66152303275829    1.14101692979714    3.85700434065625
O         2.70681260593470    2.37513214215948    4.41708418101150
N         3.21499290372602    2.19140381355211    5.71509631079463
N         3.60658764793502    0.92686808113105    5.88123898733117
C         2.29647351300107    0.97240087523650    2.42972134785452
N         0.85358250203689    1.16717889975321    2.19005522761002
H         3.16365089388800   -2.40987566310997   -0.06276248669086
H         4.75454507385729   -1.51456998939716    0.10306157546970
H         3.88030334838484   -1.24907476660021   -1.36269796242255
H         2.05533036594305   -0.01875470961021   -0.15041051904690
H         3.62234249675265    0.55901292414223   -0.02089195577597
H         3.14105221228585   -2.42707110858764    1.95635457178023
H         1.46330722939490   -1.81481825276567    1.84762278284611
H         2.75391422368675   -3.92524356342373    3.89060795627038
H         1.11455357707850   -3.34271820842913    4.33849331848252
H         2.38296415429405   -3.10096924568191    5.44560149332589
H         3.95628300866798   -1.60657657240629    5.33667813544680
H         4.96603918296108   -2.13878172731717    3.07115922557692
H         5.59172858646341   -0.71489286255806    3.86753103101694
H         2.81280711873961    1.74970958313580    1.85960138121990
H         0.33945589465204    0.55940518298217    2.83809470419031
H         0.57960260966929    0.93353145451627    1.23935406395340
