32
 energy: -49.313204962938 gnorm: 0.142691879387 xtb: 6.4.1 (79825abcba525fcdf90b791dcacef51065a7a4e7)
C         3.67651732971378   -1.35381019205484   -0.53203763167267
C         3.09757567861053   -0.22148748579539    0.30760153882855
C         3.11781436929443   -0.33851644351944    1.85584126617016
C         2.49898467400655   -1.70191719099106    2.28916890268948
N         2.30014032503085   -1.65372468815592    3.75555565612526
C         1.83660916302104   -2.87300194768900    4.40242752172611
C         3.55492949343478   -1.14410125929705    4.38297761737995
C         4.82236552445415   -1.17077348804943    3.48414418571055
O         4.51467366452508   -0.43968366922282    2.26282887152764
C         3.35494861735451    0.30144099399860    4.70302685556410
C         2.78430198802924    1.16022745029393    3.81055690224553
O         2.67382739413585    2.37581657422407    4.40125088106905
N         3.22574613636851    2.25347511718821    5.68859585115223
N         3.60174592548833    0.98419151249732    5.85455891022624
C         2.31037242766570    0.93202046219934    2.42414367670839
N         0.85615113007922    0.71245192103180    2.54390551403964
H         3.24269530956521   -2.34785315102514   -0.37660967111534
H         4.73876433729453   -1.49774871311485   -0.32060563128415
H         3.67099544983560   -1.06924307504797   -1.58834212917029
H         2.00361509185921   -0.26297557896436    0.26169034726249
H         3.56669631702687    0.69201894327508   -0.07845917730416
H         3.21176763967595   -2.50912704579904    2.07370352946483
H         1.55828694308748   -1.89925575428555    1.76270030288891
H         2.69532853296551   -3.52355550265051    4.60679428858759
H         1.15142224419170   -3.43040531660772    3.75617766870607
H         1.36585706178435   -2.49633459458019    5.31630376348455
H         3.77255253212811   -1.79023525066633    5.24169980470633
H         5.09880980448026   -2.21363282724902    3.29259752053462
H         5.68387510977932   -0.74475539730171    4.01076470528792
H         2.51038353289523    1.77232815055143    1.75352863464403
H         0.66602294969164   -0.25132537172498    2.84165512186912
H         0.34145291709724    0.94626006618744    1.69897456002612
