32
 energy: -49.312175468049 gnorm: 0.153214803518 xtb: 6.4.1 (79825abcba525fcdf90b791dcacef51065a7a4e7)
C         4.33702962760723   -0.51813809872330   -0.36438271392028
C         2.95583376984469   -0.63925972067084    0.26803300571411
C         3.01328994165589   -0.52261732043452    1.81536779939937
C         2.20980424432035   -1.73093817696602    2.38453918744540
N         2.20759878483020   -1.69286607269151    3.86463963727055
C         1.79809185320842   -2.84942893895710    4.64860889061091
C         3.49949120796315   -1.21519245311542    4.43971536366432
C         4.60312096465636   -1.51089193006802    3.38635397841977
O         4.39063317283688   -0.57357225770928    2.29225230380052
C         3.38295182215619    0.25796350340126    4.65936591458347
C         2.87840500199404    1.08531557577531    3.69989970205835
O         2.87191568009779    2.34921912951787    4.19110905511579
N         3.25882544730242    2.19027456644342    5.53344890130737
N         3.52394541117581    0.91934941604837    5.84079417388449
C         2.39049723336158    0.87418619521367    2.31563105923299
N         0.91831455061083    0.94115032084751    2.38983867200454
H         4.94157687963918   -1.30684567360189    0.09707561107204
H         4.69186785843633    0.47490968507079   -0.07848688589183
H         4.27605168347648   -0.69136158499821   -1.44283690484362
H         2.48052555276531   -1.58565649000275   -0.01302589551622
H         2.33468594759618    0.12879780443092   -0.20932856161576
H         2.69755630367493   -2.63570641244333    1.99780284389479
H         1.21709964764948   -1.66594397876675    1.92482486876306
H         0.77678733820306   -3.12750093536144    4.36225646564895
H         1.60329045701406   -2.46995492695754    5.65651285100387
H         2.55575069709790   -3.63794195997722    4.70204959168715
H         3.78429089948869   -1.65308840977794    5.40376359080983
H         4.55280015332509   -2.54063636460399    3.01519177601179
H         5.64689570050069   -1.29750986880985    3.64330094571941
H         2.70223859144693    1.69329429080235    1.66162399346890
H         0.47041009999689    0.40046611816147    3.13864600038357
H         0.47116424640532    0.79356572960174    1.48885908943241
