32
 energy: -49.315514290724 gnorm: 0.142163168002 xtb: 6.4.1 (79825abcba525fcdf90b791dcacef51065a7a4e7)
C         3.54892731290107   -1.23876567363005   -0.58154859218312
C         2.83253345176827   -0.20221752113166    0.27558025149162
C         3.06244550506608   -0.40665208203523    1.79758504639709
C         2.21248511980268   -1.57392241019027    2.38463866385925
N         2.32604067754430   -1.69019842557622    3.85628288521012
C         1.72221707522759   -2.88875256581404    4.42091232707218
C         3.65999734719934   -1.26604793182524    4.37447799648416
C         4.78375838950052   -1.33901303493884    3.30356985650170
O         4.47887423015558   -0.57726697268371    2.10042136818742
C         3.41696461036098    0.16131358433149    4.74270410684479
C         3.04822761678570    1.10755396002577    3.83258512744618
O         2.92170471571836    2.29317288599922    4.47840294805189
N         3.35548243166319    2.07810877501948    5.79841170735173
N         3.64174438770115    0.78200517914391    5.93320788849995
C         2.55687159226868    0.97959859064239    2.43937804451096
N         1.09316799490848    1.16248241647642    2.47730052206946
H         3.20451931405585   -1.45441973003566   -1.59907365829000
H         3.56712102364928   -2.27096320481014   -0.22373895026630
H         4.58384888034929   -0.88455731075951   -0.56536481088724
H         1.76775766928512   -0.29223881122710    0.03324256240895
H         3.28311303295361    0.77299735435983    0.05299310240694
H         2.44479514556495   -2.51219396940210    1.86334109049842
H         1.19752187871604   -1.21619019883077    2.17751260154014
H         0.70230324464189   -2.94005715803271    4.02150241736045
H         1.66829025772154   -2.64442881727401    5.48637762771388
H         2.24099834958699   -3.83819221156942    4.25332365414944
H         4.04282775337910   -1.86054253504183    5.21249336754815
H         4.85975779613346   -2.38645141057473    2.99089733043240
H         5.71979629735611   -0.93490773431795    3.70550429350882
H         3.03619054007908    1.77061655451522    1.85594859205320
H         0.65909239233382    0.73249682417656    3.30214049818323
H         0.56784259365443    0.85964021384369    1.66132954313299
