32
 energy: -49.315539702926 gnorm: 0.150513928909 xtb: 6.4.1 (79825abcba525fcdf90b791dcacef51065a7a4e7)
C         3.68550814931756   -1.41003190158457   -0.49019208485534
C         3.07596406218460   -0.25210812743701    0.29082687962558
C         3.09905080987578   -0.35258962491190    1.84018871536651
C         2.44848687737934   -1.66103222122005    2.38270982963491
N         2.32196461945030   -1.66386278329195    3.85788297325599
C         1.75463121358769   -2.87107768141424    4.44158356277194
C         3.62323645602474   -1.18130438654069    4.40715451079431
C         4.80914723150562   -1.20480257535298    3.40312736203633
O         4.49777897845973   -0.36750189798857    2.25301645855436
C         3.44469040600422    0.27734465902383    4.67637666211448
C         2.77310414620461    1.08555396918919    3.80722535971781
O         2.68282015553353    2.26041242079098    4.47829716145584
N         3.19693899938155    2.11202846071503    5.77849053852720
N         3.69767709237483    0.87886434673714    5.87105447115054
C         2.36656090145821    0.97219627415159    2.38571140657567
N         0.89339181912483    1.01891301112217    2.31568843005249
H         3.01613852898190   -2.22884852718961   -0.20389774443265
H         4.72966688347661   -1.65969662743784   -0.28723752126251
H         3.56595196609506   -1.33867041978947   -1.57527364115427
H         2.05975594146819   -0.11404845549792   -0.09497026277864
H         3.63759109264906    0.63860010576745   -0.01710975013129
H         3.10992587945740   -2.43943953115125    1.97940704261318
H         1.41701579123785   -1.81560702714454    2.04626081007328
H         1.30159309563330   -2.69031484309188    5.42365581986203
H         2.53972244191697   -3.63351341187734    4.42966624926146
H         0.93887376708056   -3.11389167524192    3.75293505054859
H         3.92695456992477   -1.69802787624978    5.32530747438486
H         5.10281122307114   -2.23263326406343    3.16231062009175
H         5.56572288307680   -0.65504300588801    3.97442155960376
H         2.76569092838725    1.82357334661683    1.82741193924206
H         0.49798926825789    0.27360726798878    2.90036474672437
H         0.61490237858841    0.82179343644769    1.35804741017444
