32
 energy: -49.316615953507 gnorm: 0.147071040283 xtb: 6.4.1 (79825abcba525fcdf90b791dcacef51065a7a4e7)
C         3.63764481073693   -1.50339442274878   -0.36375653576927
C         2.94879971957069   -0.31654048680649    0.29895928888028
C         3.08746545861365   -0.34639459210468    1.84525556630680
C         2.38629710449960   -1.60392296249244    2.44239034971951
N         2.43362419271167   -1.80245183437416    3.90884802650306
C         2.08783426000949   -3.17495698736573    4.25031588571975
C         3.64098269663727   -1.10688879755162    4.44396269468555
C         4.81993009800170   -1.12389744795284    3.43163826561054
O         4.45964887766826   -0.24387395285930    2.32867235980807
C         3.22415011889839    0.30417866411207    4.70310644350013
C         2.74579824596513    1.23456050015975    3.82833591274903
O         2.67768395366435    2.43572402923253    4.45391367796148
N         3.14650995759836    2.21602964692317    5.76111502324565
N         3.47081361029911    0.92807304249845    5.88758784329464
C         2.46407798576246    1.03487227506753    2.38625838912760
N         1.00337308600072    1.02069787434534    2.17780429788104
H         3.04827738563197   -2.41506023905682   -0.21545858915117
H         4.64436049249517   -1.65283749888171    0.03371144743147
H         3.59697402212933   -1.38692516402480   -1.45075650234247
H         1.86474086439678   -0.32663087049741    0.13992017339221
H         3.34589584935419    0.62459541730247   -0.10127679202000
H         2.73916739059707   -2.46578400153487    1.86036738150688
H         1.32300586679724   -1.55120563892672    2.18228163743777
H         2.90115232610825   -3.90011903305712    4.12768479074456
H         1.21142284696836   -3.51934490441378    3.69253591433239
H         1.77397319601266   -3.19337409573331    5.29903303535595
H         3.91539220126833   -1.53906738195009    5.41358829645675
H         4.84908335665330   -2.17923880374164    3.13825817370418
H         5.84933369937135   -0.81309106174348    3.64317303316251
H         2.85949133078568    1.90972769609481    1.86269151674478
H         0.52801052068385    0.43292920013129    2.87223114176090
H         0.82025786276986    0.67371479935058    1.23995549366891
