32
 energy: -49.316196448792 gnorm: 0.152472592581 xtb: 6.4.1 (79825abcba525fcdf90b791dcacef51065a7a4e7)
C         2.91903363018710   -1.45092726569887   -0.45206458380721
C         3.14826794846957   -0.15284147478712    0.31262293304869
C         3.13963459561345   -0.30289175913758    1.85812026975733
C         2.40642772292076   -1.59367232895557    2.33338633219551
N         2.34569944022355   -1.69116238357457    3.80951622755703
C         1.93130081643120   -3.00738171083617    4.27403947849415
C         3.64594647603286   -1.19862593974947    4.35231980401864
C         4.82967647894448   -1.19979008961660    3.34544891806355
O         4.54893554321497   -0.30219327838376    2.23356663808740
C         3.53236730218314    0.26494846618527    4.62992748596300
C         2.90053284165943    1.21996594859759    3.88939983278517
O         2.82920940645375    2.35455478928806    4.62858996498290
N         3.28202679891086    2.01458444018395    5.91553027969487
N         3.70516609463100    0.74954928055203    5.89023931515450
C         2.47577799035581    1.02330694421602    2.48236826461867
N         1.01466256538341    1.04451175065316    2.27741732166863
H         3.12794803029083   -1.32376697474221   -1.52008417054511
H         1.91694445690107   -1.79677695628913   -0.18749743528920
H         3.54106009292335   -2.27678779611467   -0.09453753233166
H         2.34757064938215    0.53971735339212    0.03008981454295
H         4.14853254142177    0.22208276960266    0.06259572397544
H         2.97889512725216   -2.39226925254193    1.84287980038401
H         1.35868305818245   -1.63639211563941    2.01490547545265
H         0.84118683383047   -3.10844138331638    4.21220819281425
H         2.21038074558044   -3.08674853594559    5.32932797156269
H         2.42533351245284   -3.83938457664599    3.76183000442337
H         3.96520941336791   -1.78715334291604    5.22062815723553
H         5.00462615438169   -2.22543077507133    3.00176160581473
H         5.70188077734109   -0.74270698760643    3.82644170377085
H         2.77277429208643    1.81361939585902    1.78735357365647
H         0.57420148314006    0.40219932506173    2.94607194694764
H         0.70763890980597    0.73792792475200    1.35805251527255
