32
 energy: -49.318752020363 gnorm: 0.143990477672 xtb: 6.4.1 (79825abcba525fcdf90b791dcacef51065a7a4e7)
C         3.45761621472198   -1.49560382240515   -0.35976861971595
C         3.02639504237657   -0.19629319891874    0.30968062690546
C         3.00634731509663   -0.25843874748314    1.86109535371312
C         2.29073641395409   -1.57965682019799    2.27566557773452
N         2.14724026932346   -1.66770681022910    3.74665427857359
C         1.96392902614694   -3.06368550084140    4.11757458837485
C         3.38925235528279   -1.20549782010059    4.43341409438094
C         4.55050418000920   -1.29277642906132    3.40439334747002
O         4.39748804452155   -0.37654467564687    2.28283944924101
C         3.35633196110164    0.25574226311629    4.74278432609493
C         2.91279641346260    1.19758750786949    3.86195623892041
O         3.19275153889591    2.39716091848765    4.42890393932685
N         3.73224532754654    2.15856700815685    5.70517123131402
N         3.83209156216668    0.83927219090185    5.87690463767148
C         2.36293352356943    1.07549342364627    2.49025177895678
N         0.89088680281550    1.06058444480399    2.59109320588848
H         3.79822492197089   -1.16795755438025   -1.34825960934214
H         2.60826894500977   -2.15768833113491   -0.54427827623100
H         4.22099242786838   -2.05865498361215    0.18522521012103
H         2.11759930892773    0.09733161509941   -0.22739817097633
H         3.76337406711969    0.57034437541411    0.03997746446749
H         2.91290398166210   -2.37918052957369    1.85170568618905
H         1.25908115301282   -1.66428460503244    1.91573575567266
H         0.88536529758751   -3.25152492735447    4.05591994402123
H         2.22119178873508   -3.22609292019668    5.16888719871142
H         2.50285692009710   -3.83224742376810    3.55408109672372
H         3.57332185037417   -1.80108422251234    5.33543847061349
H         4.57081776201916   -2.32470396161917    3.03645299968341
H         5.49007453145998   -0.95089154053008    3.85310443052762
H         2.65669144862350    1.99180213207297    1.97070329769237
H         0.64382130291695    0.32222466949776    3.26001301179845
H         0.49533748758790    0.99859988277270    1.65664819932357
