32
 energy: -49.312185595487 gnorm: 0.159585385917 xtb: 6.4.1 (79825abcba525fcdf90b791dcacef51065a7a4e7)
C         3.63294901595749   -1.49162657118265   -0.32522270625713
C         3.08217077930946   -0.23841885124613    0.34443081734834
C         3.03211533255193   -0.38820484451360    1.88916712663187
C         2.35968087755865   -1.70188845405861    2.39081632332142
N         2.43186995007780   -1.69821911622641    3.86964254187239
C         2.08524845114387   -3.05183506387309    4.27893314419105
C         3.70335037091998   -1.15506093718981    4.43194758907707
C         4.86656272457264   -1.10143319372861    3.40283722856524
O         4.45964376286277   -0.41070619388278    2.18706962038295
C         3.32169785409616    0.25788514861947    4.73184926664593
C         2.70226084671688    1.08373180032680    3.84082205623790
O         2.54740332480102    2.31242214190299    4.39319886740803
N         3.10197716200111    2.19481820478922    5.67984411001193
N         3.56551381147232    0.95877713592118    5.87307118804100
C         2.33274968576174    0.96423417415834    2.40973466298834
N         0.87880387737155    1.14383912046959    2.23339275743126
H         2.95171072885471   -2.33738310814253   -0.17999501950820
H         4.62762275898558   -1.73988219455982    0.05264471291680
H         3.71398737827140   -1.46796602185608   -1.41593856823010
H         2.10894926307884    0.14731935565092    0.02097328293659
H         3.81186918799863    0.57581858583570    0.25405003584152
H         2.93360184402112   -2.49739839048143    1.89700330070013
H         1.32304052524376   -1.75080189817470    2.03866837623220
H         2.44039038471714   -3.90555901578476    3.68951454892105
H         0.99521300248673   -2.97842116369169    4.34413764445956
H         2.43595612616566   -3.18581466405080    5.30738305325545
H         3.84425195883547   -1.72346541492006    5.35894047912711
H         5.30487770770248   -2.09115933960002    3.23257478072077
H         5.66575624659406   -0.51100950918142    3.86512387629983
H         2.77972966846963    1.76573308972645    1.81504618392496
H         0.42680233499461    0.44403577480120    2.83309277379066
H         0.46695769047926    0.94659429140711    1.32511636301223
