32
 energy: -49.320835670493 gnorm: 0.146765396390 xtb: 6.4.1 (79825abcba525fcdf90b791dcacef51065a7a4e7)
C         3.36355225234906   -1.46804808957052   -0.42118980301122
C         2.89194978316557   -0.22384165846967    0.32168539498287
C         2.98974299475916   -0.35623492996187    1.86572560009266
C         2.10954094229133   -1.53166909241517    2.38839519245013
N         2.30848719961666   -1.62692985172916    3.85246399999906
C         2.04261357972033   -2.97721169554771    4.32784968770116
C         3.67368643121353   -1.23032505945309    4.30722318441383
C         4.80153010131282   -1.33244197364258    3.24301088064651
O         4.41898756419416   -0.47209921478446    2.13204317231597
C         3.58098279904245    0.20988473264282    4.69351073972620
C         2.96654132106294    1.08568648534690    3.84788237340080
O         2.76613711140480    2.21992090253472    4.56351592706183
N         3.23426247588842    2.00946390521891    5.87248701113299
N         3.69843650886891    0.76011555146514    5.93308079818209
C         2.53447810646576    1.08050156307338    2.42938888015080
N         1.10022336060504    1.42202853376073    2.36951003997359
H         3.45729310302790   -1.15803702843123   -1.46789253040186
H         2.61386848608119   -2.26201774147119   -0.38408269541450
H         4.30896596406181   -1.87092489245994   -0.04612804308952
H         1.82711065176716   -0.04920913668792    0.13142250372199
H         3.55667176298948    0.59305653560408    0.01438573504718
H         2.42039505995833   -2.45815526411000    1.88733060455946
H         1.06676882263696   -1.40821290572505    2.07469343782978
H         0.99739830094868   -3.20018507613113    4.08250797981461
H         2.13635378976170   -2.97236471018498    5.41826602315410
H         2.75917753907361   -3.73479839997112    3.99430194473855
H         3.98069041993795   -1.83803128529176    5.16669652003596
H         5.02621204199492   -2.35456740577223    2.91828824416029
H         5.68812148467736   -0.88143952084008    3.70298029467559
H         3.07743532506791    1.88084099160495    1.91899662604859
H         0.56145584184746    0.81786685197614    3.00069024187574
H         0.86149252670751    1.08634857494256    1.44009335335307
