32
 energy: -49.311964440266 gnorm: 0.150871242058 xtb: 6.4.1 (79825abcba525fcdf90b791dcacef51065a7a4e7)
C         3.87585210401335   -1.14922294249295   -0.43829118036717
C         2.95100303400233   -0.16501045421750    0.26761395856382
C         2.91342012291139   -0.38536315401045    1.80422836803725
C         2.21102571221825   -1.65877006396814    2.36517539550719
N         2.17734528003134   -1.59922809702416    3.84418590677854
C         1.70415936948699   -2.90942223992978    4.26777508814221
C         3.52969179184383   -1.20166171026023    4.33507296322432
C         4.61333008372142   -1.45688237077540    3.25082321790424
O         4.31965967965780   -0.53866795524773    2.15930240215606
C         3.53957334434365    0.25478192258506    4.66777490356668
C         2.99431431706849    1.17308292232086    3.81979480536050
O         3.11849209223269    2.39086454958861    4.40320608023732
N         3.71986111909498    2.19282342716198    5.65858403501796
N         3.93920055766077    0.88511773847082    5.80622038259307
C         2.26564332467635    0.87731752701833    2.56265889477713
N         0.80725089096778    0.89499824424690    2.78647067167669
H         3.72612732235110   -1.10489137317040   -1.52277170357845
H         3.83520456893510   -2.19102913933591   -0.11152196524478
H         4.88352207662016   -0.77619757142068   -0.23276398480065
H         1.94693670949613   -0.36231982659129   -0.12417512209010
H         3.25078659988605    0.87012083517994    0.06208032576502
H         2.64342981480720   -2.58121083716850    1.95505060604883
H         1.17065335448214   -1.62722008649395    2.02216828325506
H         0.66295348512222   -2.79402868069495    3.94380086513436
H         1.76338283820100   -2.86057507221947    5.35952828388386
H         2.30797893876323   -3.74054354270214    3.88923192213543
H         3.72848986205961   -1.83554693229376    5.20738115239519
H         4.65767425219348   -2.47447719261895    2.84684111383931
H         5.56264683888383   -1.10692853284998    3.67195190106568
H         2.40895220736475    1.68158242137531    1.83570185078337
H         0.39866509743733    0.54934810163663    3.66240094549862
H         0.39233328391788    0.42733044943796    1.98483544894754
