32
 energy: -49.315693385883 gnorm: 0.156780735956 xtb: 6.4.1 (79825abcba525fcdf90b791dcacef51065a7a4e7)
C         3.72337853732711   -1.40778611913695   -0.40287384538871
C         2.94736424084143   -0.32795010711388    0.34149037277616
C         3.05650166950638   -0.40017325928150    1.88875391870597
C         2.26759926442920   -1.65671160937078    2.36659174787240
N         2.29754608978190   -1.73303233347839    3.84491175173358
C         2.06826050031347   -3.11879311505788    4.22836521945456
C         3.51853473899538   -1.15264223628478    4.47752875052100
C         4.66330369699279   -1.27493440109456    3.43371090379250
O         4.46769225211370   -0.44303901058811    2.25453155902021
C         3.24654468294750    0.30017871265499    4.69512692222454
C         2.83466873033841    1.25326269785572    3.81102088984148
O         2.79202582224132    2.46348311928987    4.42120859525153
N         3.24872319715717    2.23378651612602    5.73098177409362
N         3.54293525518276    0.93889082755231    5.86015169594485
C         2.46858172802265    1.00956748348465    2.39489157712188
N         0.99940407446662    1.12509317895315    2.32083984845679
H         3.38245452145678   -2.38686993328733   -0.04840733854682
H         4.79937058965306   -1.42354164191894   -0.21370894087227
H         3.52039968925077   -1.27473632950078   -1.46959099139987
H         1.88577626012696   -0.30509475085345    0.07114346844002
H         3.41187798160244    0.60569527598171    0.00069082058548
H         2.81135378076422   -2.55008626945841    2.03150164768184
H         1.20997453546045   -1.75341267991357    2.09621655232367
H         1.76363523145304   -3.25270521633040    5.27318848387472
H         3.02989039349067   -3.60886371707406    4.04693408368849
H         1.24797503606996   -3.64242578913913    3.72677156088220
H         3.77454628623620   -1.64144536694804    5.42504249785871
H         4.82711617619311   -2.32326218696391    3.16013916948676
H         5.54508878433560   -0.85131182383133    3.92769301598873
H         2.93459196217180    1.83863360288456    1.85514179725769
H         0.59716936027709    0.38488899349740    2.90733385814890
H         0.66512560835537    1.38098136773060    1.39549236966510
