32
 energy: -49.316008669057 gnorm: 0.148011094818 xtb: 6.4.1 (79825abcba525fcdf90b791dcacef51065a7a4e7)
C         3.50858461317975   -1.52388405761256   -0.45380127756350
C         3.18387353058693   -0.23723346939330    0.29547507986129
C         3.08804241125899   -0.36215009371911    1.84026110327852
C         2.36251233603462   -1.66118897386623    2.30468407669004
N         2.26771441455221   -1.73144192779410    3.78056671434379
C         1.86044819826428   -3.02063233002435    4.32099590344552
C         3.48890726145367   -1.14243623097272    4.40477062416366
C         4.73989415269806   -1.10096280626024    3.48372839705346
O         4.48441621812939   -0.35212501478215    2.26112842524838
C         3.23387289764538    0.30201027340782    4.68858049272621
C         2.87358918844598    1.28232983917360    3.81175464867950
O         2.85809769746956    2.44636612299737    4.50713975918825
N         3.27421092418343    2.16942562066261    5.82129064035725
N         3.57273816567430    0.87033362053465    5.87822840928543
C         2.47758780506046    1.01408444533371    2.40816761119981
N         1.00649494303576    0.95450595793764    2.30993824760194
H         2.89816135250823   -2.37797821462664   -0.14013359485292
H         4.54251859172425   -1.74914930440622   -0.18172299508884
H         3.47735106546336   -1.41592118235960   -1.54199087929000
H         2.19828644835684    0.18625986454589    0.07220314529591
H         3.97002741285412    0.49889865929424    0.08647122756839
H         2.78056526741819   -2.56801600013271    1.84755268351421
H         1.32553460831136   -1.72704339329643    1.95631028416351
H         1.89332854242192   -2.86568749401870    5.40602845626731
H         2.46785090634185   -3.90779105308666    4.11647244457990
H         0.82651609419118   -3.24518855798903    4.03954515918873
H         3.69994365593178   -1.65208149071607    5.35238767109568
H         4.94742803870386   -2.08320242433189    3.04463593792125
H         5.68868746376697   -0.70886768025788    3.86722808702931
H         2.77846693944742    1.77755975652938    1.68537913497564
H         0.66000286622615    0.31915710700848    3.03791166959182
H         0.73874253628740    0.49889568008804    1.44148172028720
