32
 energy: -49.312878820956 gnorm: 0.158894180343 xtb: 6.4.1 (79825abcba525fcdf90b791dcacef51065a7a4e7)
C         3.50644675412992   -1.45903138634088   -0.44374285809625
C         3.13646845668102   -0.18254019506293    0.30191684826010
C         3.10024532222623   -0.36669613311208    1.84332079845354
C         2.39778269943607   -1.64592618726587    2.39077068334237
N         2.47442752543782   -1.65244509879668    3.86936284686831
C         1.87343034742072   -2.85540743587512    4.42759702735760
C         3.77406819232657   -1.16377312044256    4.41708912275007
C         4.84844655055205   -1.21578989779081    3.29547758822871
O         4.53308780359683   -0.43651366201620    2.10633709378144
C         3.34510729340322    0.22772406043607    4.75137108877092
C         2.77762258103341    1.09481132239517    3.86493148839335
O         2.56368650372631    2.29270905018236    4.46330707025038
N         2.97326311770786    2.11291818191161    5.79625907530207
N         3.48877763939322    0.88988579854742    5.93204205585426
C         2.49890393183349    1.01373078537540    2.41077497263237
N         1.03675596396084    0.96082674324623    2.21936618852088
H         2.61706306298632   -2.08409932249018   -0.30674821694177
H         4.36276416915919   -1.86296479002901    0.10155411421196
H         3.75853604729896   -1.34541631581437   -1.50219962798042
H         2.18171233508008    0.17624224551450   -0.09845144420544
H         3.87588471695083    0.61908454272015    0.18244956805186
H         2.97589898525456   -2.46145189635665    1.93604877315372
H         1.32775140661685   -1.72956130132030    2.16927097536155
H         2.13457344683643   -2.84063532605864    5.49247764436223
H         2.07851472441895   -3.74146203528475    3.81877344999017
H         0.79512836043332   -2.66669217432308    4.44511837385840
H         4.03897184338156   -1.71463209205507    5.32738202632104
H         4.94657924916978   -2.25338713834893    2.95720386603431
H         5.74291200389564   -0.81936416209213    3.78923617759551
H         2.89893722659474    1.87118083183734    1.86250608111727
H         0.59095738994498    0.28429749476085    2.84963758552695
H         0.74335290902752    0.64028425171814    1.30031451594919
