32
 energy: -49.314987701612 gnorm: 0.152134237949 xtb: 6.4.1 (79825abcba525fcdf90b791dcacef51065a7a4e7)
C         3.65797565194592   -1.34933315708339   -0.45903304363755
C         3.00359053393289   -0.24964554986551    0.36848697108466
C         3.12004948078561   -0.40752924985888    1.90883163902835
C         2.45078823966711   -1.76728335820353    2.27317047378349
N         2.36530628403453   -1.66251114905019    3.74757452816832
C         1.75026776154166   -2.82999456497261    4.36292115258771
C         3.59528133948221   -1.13216691317745    4.40618409119277
C         4.74517498410746   -1.21954062566429    3.36449437099327
O         4.53407935118627   -0.30499210578875    2.25102351630034
C         3.39587817595748    0.29603545677639    4.79668713354077
C         2.78845357764355    1.11593107911338    3.89199885156071
O         2.80334912293055    2.36716833968731    4.41445876725713
N         3.29662655802784    2.26575921652253    5.72717822018096
N         3.66872786863166    1.00054080079962    5.92907775012284
C         2.36123206535229    0.88663425110332    2.49066590826365
N         0.89237688876077    0.78436471771170    2.39413495427304
H         3.07808764255555   -2.27834666809820   -0.42520116687803
H         4.63130554895432   -1.59602236029140   -0.02826182348581
H         3.84542913094557   -1.10922896645332   -1.50974675279583
H         1.96606365447529   -0.19939178740148    0.01978739962638
H         3.51442134234892    0.68828981623351    0.11760814671549
H         2.95953146599197   -2.58765578153593    1.74948923463947
H         1.42732103389121   -1.73524497149061    1.88264218852794
H         1.13145748049813   -2.48585629232408    5.20019490954795
H         2.48672857921414   -3.55904338219091    4.71496061948423
H         1.08515464364384   -3.16407460666041    3.56000727977888
H         3.80494216368900   -1.77803405362033    5.26708518043301
H         4.83809914709433   -2.27139560756375    3.07186257808378
H         5.68689807510024   -0.98292746297805    3.87261953688067
H         2.72288979592640    1.70336410281368    1.85979188483349
H         0.64571106408657   -0.12877781159632    2.79287913042839
H         0.57868812110497    0.77462151044705    1.42718446830971
