32
 energy: -49.314877183921 gnorm: 0.146576590505 xtb: 6.4.1 (79825abcba525fcdf90b791dcacef51065a7a4e7)
C         3.43265599715618   -1.63825362496513   -0.44061001192056
C         3.03444024084092   -0.37673427573998    0.31590516771264
C         3.07471548249368   -0.31636527387780    1.86699675098838
C         2.24369570528674   -1.50839816730440    2.43095447897261
N         2.23406138241555   -1.75896462189396    3.89015813866759
C         2.26177488155830   -3.19297770438305    4.14071717296075
C         3.46372028756455   -1.16733097994973    4.49495465197982
C         4.67633767857217   -1.14429280508176    3.52333984023106
O         4.47377236947782   -0.46486849411809    2.25128339562671
C         3.23808635641223    0.28880613258531    4.74147098904795
C         2.87908512293033    1.24878226883129    3.84190538011824
O         2.75043898850739    2.42298484809130    4.50784786566155
N         3.14460601555680    2.18784781589452    5.83682556719713
N         3.47108747735878    0.89807357538174    5.93628767735659
C         2.53582612528533    1.10039154841008    2.40698980193563
N         1.09401890273005    1.28055360016332    2.14999491924788
H         2.76345429370050   -2.45240702912780   -0.14093666414416
H         4.45206440132915   -1.93052271421469   -0.17759712803009
H         3.42098900332123   -1.40229107434018   -1.50877370815543
H         1.99299958382189   -0.23788438839795    0.00493745183288
H         3.64171694732018    0.41916204517703   -0.13284318969830
H         2.72862713847923   -2.38243585168550    1.97601243401075
H         1.19593583226543   -1.33835096647039    2.15836116640571
H         1.98346480409180   -3.37218571246059    5.18609397164430
H         3.27982388597367   -3.59189979886730    4.18821338017084
H         1.63840705897398   -3.81783502070447    3.49293517995387
H         3.79461560598615   -1.70859549600933    5.38926652472811
H         5.00878336554195   -2.17435423712039    3.35269260335907
H         5.54756009609427   -0.67829843552290    3.99751290802302
H         3.13886156516112    1.85444446606334    1.89357140805021
H         0.54798016606635    0.49435059906113    2.52066560877514
H         0.78332602669011    1.40606054219027    1.19019975671924
