32
 energy: -49.309158248077 gnorm: 0.145284032769 xtb: 6.4.1 (79825abcba525fcdf90b791dcacef51065a7a4e7)
C         3.76234293074731   -1.48206268157320   -0.40139591690307
C         3.11554116682329   -0.27102567688896    0.25993526792477
C         3.06146469139391   -0.33687293373976    1.81038407236827
C         2.42569739700406   -1.68439930754948    2.26815830392113
N         2.25371257289444   -1.61965542950291    3.73730130392473
C         1.87502332570840   -2.93285412521704    4.23934216856557
C         3.49075918896251   -1.11384745375688    4.40193968456361
C         4.75398110141217   -0.99815075084555    3.50422496793292
O         4.44752959110398   -0.30127438150238    2.26276272604703
C         3.26777485136607    0.29812504676749    4.83625284725526
C         2.79311612927038    1.11356996921162    3.85167017323754
O         2.84685734389453    2.38270089577109    4.32622206813234
N         3.36455616534789    2.32862331038421    5.63232403393695
N         3.63346985586441    1.05155544662810    5.90942247310786
C         2.22580012372573    0.84837641753004    2.50755180123608
N         0.77723197980064    0.56818501401186    2.48619966744805
H         3.01473496815177   -2.27966600648068   -0.47482665305084
H         4.65214809796163   -1.85128802399145    0.11407464858317
H         4.15653312095202   -1.09537963557457   -1.34578907900254
H         2.09208183487272   -0.08710053247692   -0.08543611092583
H         3.76631958697477    0.57661419357900    0.01173143017811
H         3.17055796287293   -2.44412233822486    1.99598871070044
H         1.42859854505297   -1.76688155221678    1.82092852234481
H         1.93619371874299   -3.60447985614868    3.37472565092487
H         0.84090337449348   -2.86767664792859    4.59171459492523
H         2.56905402084694   -3.20532118889409    5.04105203769792
H         3.66267064119114   -1.72861280833377    5.29343434489161
H         5.07499857479433   -2.00979985711952    3.23186300597663
H         5.59614018178952   -0.43158673644748    3.91749564386200
H         2.51179177596353    1.72344627239947    1.91737596614094
H         0.54863715828293    0.07936931918717    3.35939715187746
H         0.52491845714724    0.12040502353503    1.60909090450057
