32
 energy: -49.313883680319 gnorm: 0.142460580540 xtb: 6.4.1 (79825abcba525fcdf90b791dcacef51065a7a4e7)
C         3.28192290897789   -1.42381831291072   -0.48314112660784
C         3.03198673062542   -0.16675043139997    0.34125825439490
C         3.10543861903469   -0.31655669966515    1.88505699411140
C         2.22106540027793   -1.49830923938002    2.38598570265755
N         2.31825668231750   -1.70766980581650    3.84847457640690
C         1.95831253538898   -2.99224807456996    4.43177575504016
C         3.66549068057988   -1.25107092958785    4.30052351491672
C         4.81843327387695   -1.36310379588494    3.26457995815437
O         4.52529037989083   -0.40709472806332    2.20585826992986
C         3.41464550436293    0.19067600751506    4.60128713492094
C         2.90644977570314    1.18353606310362    3.81667232744008
O         2.83273087519334    2.32766349612396    4.54077099349926
N         3.28654720906371    2.01971944462275    5.83539835317353
N         3.64447539668524    0.73448352597998    5.82788196517055
C         2.49010208876618    1.07920673144104    2.39730651601043
N         1.02257854078339    1.22319983575197    2.34296082213538
H         2.90285768283825   -1.43071547303300   -1.51112108074326
H         2.85379896520099   -2.27819237282327    0.04652419240895
H         4.36427500214313   -1.57220195548399   -0.54045054996134
H         2.03550452468169    0.20283613253348    0.07478528604113
H         3.71141352014309    0.65524043898422    0.08372903711983
H         2.52146388336896   -2.43219528134356    1.89233578389198
H         1.15268137504267   -1.37931443417815    2.17286666067459
H         0.87898770724211   -3.18558506562849    4.42381453004705
H         2.32371115969053   -3.04173418852803    5.46223850128794
H         2.36763017451189   -3.81863761428488    3.84169523731408
H         3.95114233487979   -1.73501517382511    5.24204028351019
H         5.01535065027807   -2.38739464809618    2.92884351114746
H         5.67357670214148   -1.06948725109242    3.88388472893902
H         2.99965719653495    1.94360168821519    1.96254111102775
H         0.70340827300406    0.53238928013687    3.03185946971306
H         0.61841442277195    0.97213479129420    1.44456974538810
