32
 energy: -49.314923945768 gnorm: 0.154075016660 xtb: 6.4.1 (79825abcba525fcdf90b791dcacef51065a7a4e7)
C         3.64423864619704   -1.24498304430167   -0.53462532547526
C         2.84826676990003   -0.22533035740697    0.27101681425518
C         3.03360204060641   -0.36645620067363    1.80623209628785
C         2.29778100325553   -1.62858683634432    2.34953522510599
N         2.15118660872931   -1.57908630776809    3.82202002617154
C         1.76833549817627   -2.89278130889689    4.31958596778305
C         3.47463209629647   -1.19936262012059    4.39836383745327
C         4.63097865714799   -1.29291741424101    3.36438261216379
O         4.43674175380662   -0.44535268779844    2.19618581178336
C         3.37903287755718    0.24306959526849    4.77554600110204
C         3.09126195904688    1.15703469492924    3.80523157963730
O         3.20897612450858    2.36149656239742    4.41694713203944
N         3.57241702702682    2.13129989604877    5.75551315851729
N         3.80739064478302    0.82924083724902    5.92706506647615
C         2.37591617387889    0.91148934482448    2.52976414795382
N         0.90463545505911    0.96734514449754    2.62736528136611
H         3.20805335788424   -1.18732907270103   -1.53806900535069
H         3.43189467614803   -2.26700800166540   -0.21187849189324
H         4.71657074508755   -1.03568489821626   -0.59017964503987
H         1.77496158954032   -0.23478320715628    0.05077720293271
H         3.19228968842933    0.78744679487564    0.02700509543532
H         2.89432837180457   -2.48790852276593    2.01521485377789
H         1.27951094182248   -1.69247913077793    1.94945051505090
H         0.98145529060526   -3.28446242907228    3.66400218097215
H         1.41522886774121   -2.89030422335528    5.35550491988537
H         2.59298128286175   -3.59965840282320    4.18196429329085
H         3.71732772773595   -1.88344575655879    5.22018000510992
H         4.82073299136386   -2.31274257593443    3.01137113744243
H         5.60811429440253   -0.88440476600963    3.64606100331716
H         2.61308634980475    1.71485941895244    1.82677564850058
H         0.56835501721059    0.23124745811652    3.25882857137695
H         0.58510681261157    0.68432336227970    1.70471207599384
