32
 energy: -49.311949529809 gnorm: 0.143206689401 xtb: 6.4.1 (79825abcba525fcdf90b791dcacef51065a7a4e7)
C         3.94040980324699   -1.39627821046281   -0.21081183388899
C         3.07741829843309   -0.26759875131967    0.34023302070536
C         3.01454309556870   -0.30303045237339    1.89134324926448
C         2.22461639670675   -1.59865051416328    2.24767047493158
N         2.18000697500608   -1.70492616127774    3.72376911054802
C         1.97306586908658   -3.05043133175003    4.24023072340733
C         3.41780676423824   -1.17034220748712    4.36403614830521
C         4.56752857790806   -1.42055602605869    3.34888107471695
O         4.41734799345817   -0.47532791524464    2.25126214594469
C         3.34695997058236    0.28944690470993    4.67389534487099
C         2.80594167567944    1.20543948787342    3.82071825761470
O         2.89418588955417    2.43500600355416    4.38566079059291
N         3.50585742121513    2.25455036281207    5.63871007124028
N         3.79944317727200    0.95962255656599    5.76897834749607
C         2.27990144274445    1.01621917071396    2.44728947607667
N         0.80946822611494    1.12926791157075    2.49585840503926
H         3.49512540946450   -2.32028483392301    0.17443402638952
H         4.99799584768811   -1.38139421561998    0.06319677832464
H         3.97073593987174   -1.36881475978195   -1.30402462784044
H         2.06668756487517   -0.28814474537868   -0.08235436978463
H         3.51126482638911    0.68003956513954   -0.00235982711995
H         2.59281819028924   -2.50118308920358    1.74177027194502
H         1.19102291304790   -1.39235221473290    1.94742150385234
H         1.73382960996218   -2.99108394902407    5.30870091933425
H         2.85862740470202   -3.69330504527595    4.25791278653807
H         1.25028063296091   -3.66147105686278    3.68989666670556
H         3.63747246910667   -1.71180019409826    5.29184159188609
H         4.57670366664508   -2.48968278554644    3.10898327434510
H         5.52586599153371   -1.25223479939165    3.85313965667052
H         2.66817858315637    1.84485971366270    1.84858946484122
H         0.51346155000175    0.75730863719313    3.40563671248840
H         0.32712044724132    0.70988570856474    1.70532187898886
