32
 energy: -49.317127159130 gnorm: 0.140479654846 xtb: 6.4.1 (79825abcba525fcdf90b791dcacef51065a7a4e7)
C         3.31441138226885   -1.57829918198204   -0.48357714245150
C         3.33436276010113   -0.26125795519925    0.28279510903263
C         3.17218714303916   -0.27943739316300    1.82698428016211
C         2.33701751729395   -1.50893863806034    2.29645525832986
N         2.37841237912966   -1.76390457864492    3.75434088845098
C         1.94491457443219   -3.06924583693079    4.23194451124223
C         3.55802749252814   -1.18433051230939    4.46178154457104
C         4.77970149420052   -1.12428860951172    3.50318119054148
O         4.53190393559848   -0.26441325705248    2.35427369027148
C         3.26861157231986    0.25221308611035    4.75263748820547
C         2.86070193489575    1.14152931145456    3.80270025996007
O         2.80847468188941    2.36979632979093    4.37490073282529
N         3.25752249770361    2.21642070058727    5.69840773244850
N         3.55496054349641    0.93112398454949    5.89726297800425
C         2.40139566742334    1.01214260084369    2.39873226961195
N         0.93066450032204    0.91383562954064    2.46654369320465
H         2.28922933479339   -1.96484129066142   -0.47534494148662
H         3.94917241873069   -2.32125658950755    0.00517965777342
H         3.75301954490662   -1.41024823373324   -1.47159024208916
H         2.54776113805401    0.42255776424301   -0.05518832796220
H         4.33708225148577    0.16028394008278    0.13973183391157
H         2.79284424059875   -2.33644844452314    1.73652477573650
H         1.28922093945755   -1.28917924715493    2.06225010075758
H         1.83214664173355   -3.00694966854831    5.32088309398602
H         2.56618758594357   -3.94795963721234    4.03269492559968
H         0.94342706415616   -3.28430278481624    3.84538417827539
H         3.87054992513954   -1.72981670296903    5.36012849902214
H         4.91119222716433   -2.17916256828591    3.23744017500288
H         5.65031166259717   -0.75863490983803    4.05937779029523
H         2.64162320509022    1.90604448816339    1.81642982920908
H         0.51446301518408    0.22092376587456    3.09925191295798
H         0.54984482552816    0.78287786087880    1.53310100323906
