32
 energy: -49.313351327306 gnorm: 0.148323343639 xtb: 6.4.1 (79825abcba525fcdf90b791dcacef51065a7a4e7)
C         3.58081488526263   -1.36243103546729   -0.55041806482254
C         2.92908784100538   -0.23784471392679    0.24511920448079
C         3.03843820878715   -0.36293521278523    1.78899305968344
C         2.30511113263630   -1.63904070494124    2.30218969230183
N         2.23440956482184   -1.59793109314836    3.78052083931088
C         1.62213322390741   -2.71194095743020    4.49047934853861
C         3.58708885837586   -1.26336969112360    4.31549524567032
C         4.71223387179270   -1.32076986321138    3.24509300995267
O         4.45193366089309   -0.40118185953327    2.14628483417949
C         3.42570049725621    0.16255808416207    4.73106719439788
C         2.99759013291991    1.15455147744319    3.89900650788499
O         3.03542720919832    2.35771801797236    4.52329774646275
N         3.52293471705995    2.05837692722484    5.80765367157809
N         3.73431013553599    0.74600103601596    5.92162910541189
C         2.48950792702374    0.96162231984860    2.51934709925733
N         1.01837122609797    0.90512469783768    2.61873345450301
H         3.30190288072683   -1.03344818274325   -1.55762170916088
H         3.17102495649913   -2.33590025152335   -0.27073897596266
H         4.67099185392336   -1.29890467592278   -0.48509804283956
H         1.88582253301531   -0.09268723613126   -0.05671792542569
H         3.46267908637631    0.68278676904554   -0.02195588116643
H         2.78434002812212   -2.49383107134963    1.80646222669432
H         1.28621334807173   -1.71650323531840    1.90612053864626
H         0.71351743179928   -2.97325622710953    3.93503688352311
H         1.32867388122364   -2.42501593828362    5.50506012335847
H         2.28500291664047   -3.58185011654552    4.54065346583749
H         3.76542537090185   -1.99236376496289    5.11488028445089
H         4.90922188235623   -2.26331401072775    2.72214615126666
H         5.55490947852249   -0.79801960842259    3.71162205423387
H         2.75087806057501    1.89934151542371    2.02113594474024
H         0.84156421680166    0.01641155808227    3.10101808510232
H         0.62935605019910    0.97589820467058    1.68217212586455
