32
 energy: -49.314871331788 gnorm: 0.151873023316 xtb: 6.4.1 (79825abcba525fcdf90b791dcacef51065a7a4e7)
C         3.94899510107712   -1.50545461951741   -0.27908623993925
C         3.07601707715818   -0.39248018983904    0.28794054517125
C         3.06956040116028   -0.30387847888690    1.83818558403551
C         2.36078094689429   -1.58012481409661    2.38445621340924
N         2.48515868017162   -1.72279446183121    3.85290003065107
C         2.05941995674661   -3.00463376510124    4.39656897272492
C         3.74181204732641   -1.10496626396981    4.36960192704120
C         4.79346151210700   -1.27190669162624    3.23771353488962
O         4.46861824061472   -0.25493528516995    2.24724712145983
C         3.42504486304670    0.33656526498125    4.60125182496985
C         2.75494453573574    1.19568873640236    3.78117452721862
O         2.43954431417910    2.29539342254277    4.50915339381962
N         2.99281998335821    2.10017813489153    5.78689195397922
N         3.52562445381287    0.87844608129012    5.84597355878040
C         2.29711155658702    0.99757111028964    2.38476210573734
N         0.82394205815377    1.04210910566385    2.31334220623828
H         3.62673936331181   -2.50712438854434    0.02634741228508
H         4.92448380392453   -1.37667501299548    0.19591702224765
H         3.98560853613201   -1.31243731199321   -1.35527948659294
H         2.01730937388605   -0.51529329044945    0.03370876228123
H         3.27394685400194    0.60881939498591   -0.11434541378033
H         2.64721446455995   -2.53560568520860    1.92501658765403
H         1.28560437019589   -1.49070106150409    2.19204352923630
H         0.98204805228578   -3.04022124558379    4.19560138833411
H         2.14301158045954   -2.87148430189030    5.47966738170341
H         2.59012808006698   -3.92806299064714    4.14302811206510
H         4.05302835813444   -1.58279155968139    5.30612747866095
H         4.83279261834064   -2.21810137463439    2.68650046264532
H         5.79436200512487   -0.97036892343944    3.56679184257061
H         2.66469267743660    1.88098718795990    1.85532263995831
H         0.25256911126806    0.43176368209701    2.90889374408053
H         0.45393986462444    1.05046321153337    1.36649618042041
