32
 energy: -49.310989087964 gnorm: 0.150294290463 xtb: 6.4.1 (79825abcba525fcdf90b791dcacef51065a7a4e7)
C         3.94753427231488    0.09281678582760   -0.52310697146778
C         2.99538928890676   -0.80101013052778    0.26226902908204
C         3.07444600971185   -0.60650394437383    1.80079722594996
C         2.25059404559996   -1.81570658125458    2.33808816939088
N         2.11701701352626   -1.66944133740339    3.80536979092758
C         1.43028742390284   -2.62575640328430    4.66199418382039
C         3.42527120270117   -1.28615662693435    4.41318064344765
C         4.60023838809295   -1.53603771053502    3.42727061138886
O         4.47016008114595   -0.82821858101679    2.16123371858262
C         3.33967923329384    0.18899703025928    4.63366189448640
C         3.13654647777351    1.10229511065843    3.64155400154575
O         3.26178113908244    2.31528766086727    4.23463601616368
N         3.47215368921708    2.10996253975226    5.60956284501176
N         3.46000589084413    0.79691588053247    5.84570126192796
C         2.52119051880999    0.81091997445599    2.32425872202785
N         1.06178350199005    0.85489954307386    2.53758893004877
H         4.50971607275102   -0.45572409650578   -1.28700181116537
H         4.64191426195884    0.46052548774556    0.23611449606346
H         3.45721598927185    0.99284728951432   -0.90562651471866
H         3.24804401256029   -1.85174722945745    0.08144868750798
H         1.93697326474241   -0.60896998291491    0.04666023413930
H         2.82775268276912   -2.71162516241769    2.07296473375725
H         1.20837017503307   -1.84264407137852    2.00034907700494
H         0.37532349081417   -2.60071822481335    4.36398604640767
H         1.44839580052782   -2.26394439582392    5.69474907282148
H         1.98154722848705   -3.56607236697854    4.55916356234992
H         3.53129129015229   -1.84043756556289    5.35327909529991
H         4.73461062060013   -2.61943079613738    3.33308626546045
H         5.53821475287603   -1.18419375049814    3.87159652796521
H         2.72374348999200    1.49080069777368    1.49204451862661
H         0.90946553357389    0.18533523345454    3.30057851040451
H         0.58755778831991    0.49973722247263    1.71147845541519
