32
 energy: -49.317426841041 gnorm: 0.144127500154 xtb: 6.4.1 (79825abcba525fcdf90b791dcacef51065a7a4e7)
C         3.92529894896516    0.24389346663594   -0.25083103683529
C         3.04428317746778   -0.86015881420773    0.32118458194729
C         3.00112219804974   -0.68662969809322    1.86364249634498
C         2.10490110755080   -1.80871963872082    2.46968421060280
N         2.08525771362674   -1.66295906814042    3.94295258164082
C         1.39743674649907   -2.81586488439486    4.50655871723885
C         3.40465605501169   -1.25404720008817    4.50850479743031
C         4.56715819744270   -1.62053582858532    3.54451210712044
O         4.35296750871353   -0.73434782073417    2.40891936433568
C         3.50214191739134    0.23383308557503    4.60191270000773
C         2.97081528955246    1.07214237453222    3.66672078391423
O         3.12994866882590    2.32847774932224    4.15157016354895
N         3.86777150081329    2.25507545680509    5.34616983381827
N         4.03335031788876    0.96051363072164    5.62310625525398
C         2.44696099341839    0.75461362809237    2.31632030459302
N         0.97154528020472    0.77146817580517    2.32963265441983
H         4.32896556043043   -0.00562298025140   -1.23839147253352
H         4.76739179204064    0.34043500876582    0.43862517721280
H         3.39706899349539    1.17647451844188   -0.47004286424078
H         3.50062277208907   -1.82913963288266    0.09008026358549
H         2.04675998121985   -0.72107215310087   -0.11380211024275
H         2.56781335647487   -2.78442402869797    2.27022036127932
H         1.10049306582073   -1.79311581155716    2.03156901781408
H         0.41002823809891   -2.81438037415132    4.02968672844711
H         1.16149934761074   -2.63415130761569    5.55971218223240
H         1.94013876852569   -3.76082257655502    4.40079911964770
H         3.61296384808093   -1.68999704378116    5.49278540477036
H         4.39472252926502   -2.66531861370915    3.26279940497715
H         5.57135321963600   -1.44889783416109    3.94843302969975
H         2.84047445127837    1.45696267085329    1.57625343321627
H         0.54452287484853   -0.01351309406742    2.83473313211885
H         0.57574818783070    0.82724537693483    1.39490147321666
