32
 energy: -49.310009935556 gnorm: 0.145434242945 xtb: 6.4.1 (79825abcba525fcdf90b791dcacef51065a7a4e7)
C         3.93430574041672   -1.23274859386483   -0.42361503428463
C         2.93067347652650   -0.30235067963467    0.24676104533156
C         3.02283282845701   -0.42834220792229    1.79168318558814
C         2.42861294268742   -1.77831551222920    2.29572627605897
N         2.33830722355576   -1.63692086368390    3.76678172371882
C         1.59553065583687   -2.61754108480768    4.54563237198422
C         3.64416328345750   -1.24094916858359    4.37160945350018
C         4.80569687321195   -1.20122177407364    3.33997556040942
O         4.42720918188559   -0.40023397501302    2.18414541912135
C         3.47747341952053    0.18662959129288    4.77934668274950
C         2.84678494885561    0.99125994570631    3.87687429208729
O         2.68925488717294    2.23618476860224    4.39080756337511
N         3.31169617509235    2.19112108131511    5.65071823952887
N         3.69887667565433    0.93756418941788    5.89297187827779
C         2.33316087164515    0.84481251392430    2.49355482529830
N         0.85853595388154    0.82506383950133    2.54258705673195
H         3.70277873448194   -2.28410975860485   -0.21986089335422
H         4.92416680005873   -1.06120014069070    0.00596232242565
H         3.92711247227936   -1.10141537360577   -1.50965737679790
H         1.96416082506593   -0.34708656347020   -0.26746735065711
H         3.22662324918973    0.73069762133528    0.02577237794045
H         3.07161216237463   -2.58263571630494    1.91402791126594
H         1.42725070378954   -1.81964799993599    1.85234245594577
H         1.68676003952587   -2.30110033223885    5.59154207621012
H         1.86805469163522   -3.65947679237627    4.35090402177620
H         0.57102300296585   -2.53594301251393    4.16829771461954
H         3.89125958389919   -1.92177649138372    5.19481677128082
H         5.02850424214061   -2.16821091340295    2.87526484626808
H         5.70663500272108   -0.80840590001786    3.82476987457420
H         2.77498399768788    1.69281843291335    1.96296620446568
H         0.60121904380531   -0.16737143046206    2.59289082354043
H         0.51707701851066    1.14571649168290    1.64032518191122
