32
 energy: -49.316054216994 gnorm: 0.142120599156 xtb: 6.4.1 (79825abcba525fcdf90b791dcacef51065a7a4e7)
C         3.64869428902673   -1.24923969283717   -0.57503848590446
C         2.99445789757479   -0.14741013365469    0.24974539874653
C         3.05707317800734   -0.38218479149667    1.78340501714792
C         2.29692682021162   -1.65928536373329    2.25327337399986
N         2.23350450338678   -1.64680525926546    3.73245340116526
C         1.61901761762071   -2.78174918932703    4.40643375937770
C         3.51614738067524   -1.24670302924203    4.38254237032397
C         4.68303083946558   -1.33694087105040    3.36016907132058
O         4.44054367222343   -0.43618092417583    2.24186267511791
C         3.46098075231697    0.21283443164307    4.69674505083382
C         3.02231334096182    1.12871400454229    3.78658578811296
O         3.08717590887331    2.31229137245966    4.44515878716616
N         3.60730190600386    2.10238466961426    5.73444034063324
N         3.83774361758514    0.79508695950426    5.86811817354713
C         2.37464669968474    0.90204353616508    2.47206012876262
N         0.92276803228362    0.88771032513092    2.73503487361799
H         3.14433769309986   -1.26704417266005   -1.54755492718782
H         3.45456957615797   -2.19887477388907   -0.07075750836502
H         4.70499262365315   -1.02235393150738   -0.74692451763368
H         1.92187706140633    0.01052389585116    0.09098126094115
H         3.50757343772730    0.82089979934285    0.19778993537130
H         2.84827382402243   -2.52627260023642    1.86543030815756
H         1.26055501556846   -1.59386426586424    1.90301992261638
H         0.66312682548285   -3.07566144955833    3.95668601415863
H         1.31097768804718   -2.50352357155065    5.41911357482326
H         2.28122745631523   -3.65101252461381    4.33923999981077
H         3.59869357585734   -1.77613024006128    5.33917483506120
H         4.81370214833262   -2.32140773312743    2.89711705024760
H         5.68538999861407   -1.13652544748373    3.75530085169057
H         2.55300649990240    1.76179936022443    1.82025210631102
H         0.70276344312416    0.01409318905756    3.22703213576969
H         0.45264381260856    1.08332843235883    1.85514533942902
