32
 energy: -49.318537948557 gnorm: 0.139494011251 xtb: 6.4.1 (79825abcba525fcdf90b791dcacef51065a7a4e7)
C         3.69588454880069   -1.42967114970884   -0.48644808003230
C         3.02413341448758   -0.31692833623496    0.30908691596008
C         3.08371005061071   -0.40335325270504    1.85832317813357
C         2.40107678429146   -1.69543111297036    2.40066186604202
N         2.33361883490325   -1.72490626910771    3.87942227279278
C         2.04597862854915   -3.05538602060140    4.39616991910768
C         3.59548600636601   -1.12776824223816    4.40761507019192
C         4.79757725056052   -1.10806909593218    3.42293460418247
O         4.50597622699174   -0.40534369509405    2.18119245899051
C         3.32484962789399    0.29890621929228    4.75885888292153
C         2.77535992052028    1.12267924029387    3.82124838332355
O         2.58141193656933    2.32909867836297    4.40922564352797
N         3.11126318277342    2.24129487568679    5.70860509272748
N         3.50610885721936    0.98467285268835    5.92073343522918
C         2.34740827096508    0.91383974330485    2.41694330927942
N         0.87458432462638    0.95471930009699    2.33674795627466
H         2.97140798465554   -2.09639839213919   -0.96716555861349
H         4.35059360197568   -1.99331137942513    0.18247362087485
H         4.31581601771688   -0.99532622943975   -1.27626932005277
H         2.01110533405920   -0.05283861187785   -0.01434712723794
H         3.58174025420542    0.60238881998638    0.09104647924469
H         2.96066544981532   -2.55966466086135    2.01851852665113
H         1.37462765574028   -1.87604705005645    2.06183450097556
H         1.04244681137081   -3.34380704221873    4.06132388423156
H         1.99827156579322   -2.90241576581792    5.47882528559925
H         2.87511869984697   -3.69895756200615    4.08472484581994
H         3.94820898582483   -1.63562923470722    5.31310744075063
H         5.37832078224845   -2.02278339759927    3.25952756952242
H         5.57582873876949   -0.50214071499757    3.90063197110005
H         2.70127168614435    1.76776538723540    1.83261662380134
H         0.44011854031592    0.05115515495517    2.55693319249780
H         0.60017929878568    1.29839772530801    1.42019144527921
