32
 energy: -49.317061695476 gnorm: 0.140477280392 xtb: 6.4.1 (79825abcba525fcdf90b791dcacef51065a7a4e7)
C         3.90084645912413   -0.12259873782473   -0.45957174116211
C         2.93681475207723   -0.93233083154734    0.39908935929390
C         2.95031542449641   -0.66373433605151    1.92841119579753
C         1.93808181973700   -1.64345803648903    2.59557624594081
N         2.08167524604140   -1.78886026935031    4.06199733296327
C         1.83254285622644   -3.17961821639175    4.41366018465662
C         3.39711460594670   -1.22335461456431    4.48353362332896
C         4.56920282752536   -1.60639195974331    3.53775425127429
O         4.34239752443552   -0.81591073267731    2.33589049638799
C         3.28933686633710    0.25944392391792    4.63087241018757
C         3.06228676360130    1.16909488408320    3.64060085712380
O         3.13534589346325    2.40601236842265    4.19148962182572
N         3.47027803025120    2.24823019943974    5.54786864410740
N         3.59270272070340    0.93856128917643    5.77098294079919
C         2.64462860728697    0.88366107602718    2.24671474300034
N         1.26570342332802    1.40783388787586    2.21323308659407
H         3.69548978402551   -0.32100383196697   -1.51737363965186
H         4.93796054882204   -0.44138615099113   -0.33088824360271
H         3.78502696379036    0.94054393311627   -0.22913382537771
H         3.23218311686752   -1.98542899664677    0.33335775963548
H         1.90411541409341   -0.93632060206564    0.02878245662201
H         2.03013438527644   -2.61515955502999    2.09219258540046
H         0.91949104827635   -1.27454597743996    2.43004484223106
H         0.95166585570267   -3.54029129657593    3.86927493769433
H         1.77531801308888   -3.21983937564779    5.50587173770053
H         2.52283233822768   -3.96925571978001    4.09960818585026
H         3.66008039232597   -1.57510281655047    5.48821014714731
H         4.56650818864436   -2.69073224761960    3.38006454365217
H         5.55399195804339   -1.37435759446244    3.95890715796950
H         3.26247954809970    1.54351934645241    1.63133415248794
H         0.57060170965158    0.90758902589658    2.77914730844378
H         0.86116565808221    1.47619820646211    1.28309098346347
