32
 energy: -49.317791369269 gnorm: 0.140226059162 xtb: 6.4.1 (79825abcba525fcdf90b791dcacef51065a7a4e7)
C         3.44622485166449    0.19843611791896   -0.57437593673136
C         3.23273627530691   -0.98709321239312    0.35903978834150
C         3.05094012096012   -0.64967147967333    1.86378174241754
C         2.08361663841231   -1.67748362589121    2.52519847414954
N         2.04496220431609   -1.73310886454832    4.00423983977568
C         1.64522345725694   -3.06833168586142    4.42534593302062
C         3.31047683409621   -1.28001659706279    4.65312376055407
C         4.51359098700109   -1.59055855555972    3.71980330475436
O         4.35687894550769   -0.83082170358240    2.48731843341749
C         3.24631193658716    0.21084691588191    4.72540890662373
C         3.03736330583373    1.06372564415263    3.68205243842374
O         3.38928487117775    2.29719727351019    4.12191592781427
N         3.77794445430211    2.21693521852631    5.47074524752728
N         3.67437484939855    0.92824236199408    5.80020618306168
C         2.67310928352149    0.86378280334490    2.25861604985907
N         1.26669934493176    1.22018335223956    1.98972472820993
H         3.64200963309962   -0.09580980697315   -1.61147210195068
H         4.28567851743775    0.77285791446516   -0.17544281319034
H         2.54713728070797    0.81799143404076   -0.50669375618244
H         4.05146024653628   -1.70692271533890    0.24896982555230
H         2.28539492816416   -1.49722246998698    0.14474195288734
H         2.34977667223153   -2.64621707169920    2.08159169189641
H         1.04638947505119   -1.55685810947950    2.19258275970538
H         0.83988227132959   -3.37796093011706    3.74863331528893
H         1.22721109379508   -3.04202074686187    5.43647990135871
H         2.41748893858746   -3.83947632720070    4.33818178905013
H         3.33900907798377   -1.69386465022475    5.66809589052333
H         4.48799432038829   -2.65103161822805    3.44519655722101
H         5.50069113918808   -1.26065939489759    4.06305129925492
H         3.23081208394754    1.62523283437769    1.70634126920713
H         0.65460677690550    1.22269164492786    2.81374330629771
H         0.85708081311971    0.52701550418410    1.36906394323659
