32
 energy: -49.319542329194 gnorm: 0.142239471863 xtb: 6.4.1 (79825abcba525fcdf90b791dcacef51065a7a4e7)
C         3.38516164234519   -1.45363419728581   -0.57951267715924
C         2.98319273630421   -0.26230997938992    0.28158528185822
C         3.14629320170587   -0.39868363636705    1.81975045555860
C         2.42735379945978   -1.66985794184678    2.36456844794552
N         2.40297166105887   -1.78529698238726    3.84045158534133
C         2.08671430385602   -3.12188510629332    4.32362324577133
C         3.57483605937650   -1.14842757276804    4.51052725562407
C         4.77238828535928   -1.16040026484658    3.52020793322861
O         4.52296437837639   -0.40362645787769    2.30124984395329
C         3.22953142665487    0.28219889791279    4.76760486233181
C         2.84029026844020    1.16886180047135    3.80740977760787
O         2.75042475534414    2.39669586090450    4.37585384072863
N         3.11629540797581    2.22235749979904    5.72217609298173
N         3.41863806186704    0.94184695489425    5.94326909448360
C         2.52565320380117    0.97988414056751    2.37070512215238
N         1.05936007822079    1.13187061743801    2.30591766193459
H         2.71380295829102   -2.30978455803158   -0.45003341354147
H         4.37548245183780   -1.78890311940330   -0.26225892983181
H         3.48764637327034   -1.01618609084339   -1.57697153019182
H         1.98435926066453    0.08593879008912   -0.00413020233696
H         3.61796376760023    0.59234118851873    0.01654156889906
H         3.03170827456642   -2.47203937971854    1.92034638453036
H         1.34590492710758   -1.70149306438762    2.18995036752513
H         1.78011716349650   -3.03816099228766    5.37308650206613
H         2.86802232672694   -3.88061352134247    4.21542220383978
H         1.26273647501599   -3.49498125965228    3.70676392870677
H         3.90264245290359   -1.68876794120122    5.40653393740724
H         4.93272575497351   -2.22475931840313    3.31502783654260
H         5.69085133805345   -0.72091271701666    3.92554195469734
H         2.96159984868578    1.80949284439109    1.80719299194902
H         0.52160622034638    0.69217948424827    3.06167074247788
H         0.66384378959330    0.67637663557449    1.48763842082257
