32
 energy: -49.309598105341 gnorm: 0.152028053470 xtb: 6.4.1 (79825abcba525fcdf90b791dcacef51065a7a4e7)
C         3.31361610591479   -1.57302893011273   -0.51878016196963
C         3.18757567130964   -0.28731306621804    0.28953326696193
C         3.16869438908917   -0.38896249828186    1.83887587008571
C         2.45660911938400   -1.67949636291235    2.34586849173102
N         2.38828814094603   -1.68714681885026    3.82486321976569
C         1.93789570315240   -2.98849675858230    4.29770184598745
C         3.64046705157224   -1.13804724811210    4.42353495779305
C         4.83498045112730   -1.10456736480258    3.43004420479725
O         4.54791870231680   -0.24446462939783    2.29048440359750
C         3.33454267957363    0.29560378787647    4.71175581360789
C         2.79744419763501    1.19130526019830    3.83488726424620
O         2.75085810880820    2.38678127431607    4.47320360638397
N         3.10444283478522    2.14185509482973    5.81179533208949
N         3.39150615732352    0.84684499007799    5.95512685948124
C         2.44892232997765    0.92863494313040    2.41771893392298
N         0.97666456614914    1.02563379563193    2.39871604860736
H         3.82073904911565   -1.29673211679606   -1.44989089267341
H         2.35058994486411   -2.00545956537819   -0.80051558565209
H         3.99647340767352   -2.25838712012411   -0.00811571027490
H         2.41747543124708    0.33667060242243   -0.17755221454677
H         4.07077295080159    0.33499655089470    0.09899625519120
H         2.94190785021805   -2.50986964810291    1.81573834551544
H         1.40462806728011   -1.53765394279416    2.07339736787055
H         0.85802981082390   -2.97357003110111    4.48757418719091
H         2.46271212480015   -3.37548449706713    5.17669371895673
H         2.03372604854872   -3.76065336847199    3.52747698764719
H         3.86154516803718   -1.60225444432679    5.39198158227500
H         4.94667093536252   -2.15324225593924    3.13259945536609
H         5.68807265143005   -0.61731499832177    3.91567594239879
H         2.86381866052005    1.67324301620643    1.73268912397153
H         0.68741233199679    0.37273631587383    3.13609536239635
H         0.66399370102626    0.81884806190084    1.45374757951266
