32
 energy: -49.325150751346 gnorm: 0.136284348660 xtb: 6.4.1 (79825abcba525fcdf90b791dcacef51065a7a4e7)
C         3.49031857137680   -1.52309493889086   -0.43322323470353
C         3.01677739456115   -0.27082750090476    0.29472395147805
C         3.08647375858259   -0.34673933590344    1.84408880402139
C         2.32252703743849   -1.58319029567218    2.40725756374033
N         2.33397781874751   -1.67108076898158    3.88519390944441
C         2.16032695063543   -3.05638346612782    4.29838054840190
C         3.61212986698456   -1.10062324722029    4.40362979618463
C         4.77129418859540   -1.18561315194525    3.37206699476320
O         4.49974363202198   -0.35925426347081    2.20409054680886
C         3.30664145971032    0.32614220412405    4.72461801707966
C         2.91887540901709    1.24979256714208    3.79932786823674
O         2.67737402917763    2.40785427463888    4.46216351358984
N         3.05503390991549    2.20967597302983    5.80191616853641
N         3.41297297898976    0.93176475361610    5.93911305026135
C         2.46619512275106    1.02805727801935    2.40478733296119
N         0.99265721983175    0.95823483473023    2.43830904416574
H         2.71275378887206   -2.28324379278679   -0.56756433472746
H         4.22038208195053   -2.02374163112784    0.20720682066282
H         3.85531803725781   -1.26731921897110   -1.43229395234563
H         2.01881946009299    0.03941767265536   -0.03452784787940
H         3.70277888282168    0.52923082728891   -0.01010334442899
H         2.79720012197463   -2.45617704870969    1.93965492983950
H         1.28042862158165   -1.60107355703244    2.06853201772648
H         1.83517615293090   -3.10843045543300    5.34430249994308
H         3.05192526231626   -3.67612619936662    4.16130430477864
H         1.39241439291551   -3.45097147997986    3.62513005705930
H         3.89759260440990   -1.65581030392386    5.30503485084480
H         4.86657310505407   -2.19252698797910    2.95050606186206
H         5.78579591484335   -0.89744671143859    3.67000271874416
H         2.69561037769310    1.83052433550024    1.69820311983334
H         0.78967953661288    0.18804037273475    3.08582026396413
H         0.79223965064216    0.64486070082726    1.49220213994364
