32
 energy: -49.313700445762 gnorm: 0.149871864454 xtb: 6.4.1 (79825abcba525fcdf90b791dcacef51065a7a4e7)
C         2.74467650168802   -1.97025514827771   -0.09523887999132
C         2.71368840586777   -0.55352900333776    0.46534015572505
C         3.09499101692599   -0.42347831374303    1.96495569746221
C         2.07428988551885   -1.20991221994840    2.84203923600857
N         2.60962697115214   -1.94800802417691    4.00856419789610
C         2.97419250016868   -3.31574283397386    3.66748524985369
C         3.72230853077815   -1.09388328162214    4.51874151195475
C         4.88963406899351   -0.88228167782140    3.51495722859905
O         4.49584447735113   -0.80042961208271    2.11531166654013
C         3.14907962021716    0.26549383277307    4.75436571775907
C         2.82499860028096    1.21326637089277    3.82897223871480
O         2.24358230581894    2.25458333688096    4.47425899957679
N         2.27158872032183    1.92207003504469    5.84008817950513
N         2.76803228602497    0.69274258337336    5.98941418039685
C         3.02656028657201    1.13435949921856    2.36201078953857
N         2.01087799876614    2.00255982440079    1.73596725271577
H         2.00355332963566   -2.70380077518693    0.24110626736081
H         3.70370588899424   -2.47215563808065    0.05358661079627
H         2.57422121085443   -1.83197355088290   -1.16697173966565
H         1.72419800617079   -0.08423360083181    0.50068750299127
H         3.39315751316903    0.07808352589244   -0.12032049161616
H         1.43251646846310   -1.94086037861843    2.33222132858957
H         1.32339158685681   -0.52512091754593    3.25220571026658
H         3.61841038012330   -3.77853260141970    4.42458076088978
H         3.36720297101349   -3.52202094149723    2.66708002607933
H         2.03375460480144   -3.87630279167100    3.66965757872806
H         4.08139066732589   -1.46157878207854    5.48730372638561
H         5.62093344510459   -1.69828548935177    3.51247303411635
H         5.39809546840905    0.03575047319958    3.83071556686520
H         4.02874902149816    1.53397296233061    2.18376146259542
H         1.15756362484800    1.43355548074057    1.77790608334483
H         2.26682576715956    2.08876016687534    0.75589120437796
