32
 energy: -49.312018311273 gnorm: 0.152795725855 xtb: 6.4.1 (79825abcba525fcdf90b791dcacef51065a7a4e7)
C         3.43767086385170   -1.61901827589112   -0.38416164142821
C         3.06601348058085   -0.31995004398178    0.32054723469505
C         3.04731367144992   -0.26791606316460    1.87235083484073
C         2.38314707308998   -1.57463129890471    2.40240993585420
N         2.42136919335833   -1.76065645758815    3.87077140686268
C         2.07246458199842   -3.11178096595597    4.28630662451370
C         3.68501404371641   -1.15081397038090    4.37985298453217
C         4.89764897961712   -1.05181519431109    3.41304235644874
O         4.45650557731240   -0.29930771483420    2.24689369711024
C         3.33525756240351    0.26868640465314    4.68759535817981
C         2.78020431743785    1.20793219376071    3.86943424633928
O         2.72047775818345    2.37700836094921    4.55388627558977
N         3.17514758728115    2.11858111432936    5.85900293951806
N         3.49098869960802    0.82381000844400    5.92074938736469
C         2.37606964166000    1.07606960761006    2.44882990624547
N         0.93724347785402    0.98275760055736    2.13516616362677
H         2.59856860647037   -2.32222077859168   -0.34063643321980
H         4.31899923283597   -2.14551293941577   -0.01019083123515
H         3.59053547357019   -1.37662986733763   -1.43994021611113
H         2.13096040236107    0.02442367521145   -0.13515149880345
H         3.76762514334213    0.45147712488232   -0.02041060227899
H         2.93039966927978   -2.43427953706225    1.99302975072325
H         1.33525831152556   -1.51977356895974    2.08627120971612
H         2.19533876368226   -2.99762290778408    5.36993688200291
H         2.60506815781785   -3.93942356984880    3.80760039823700
H         1.00494293989170   -3.29408056806458    4.12562053997147
H         3.84679395721595   -1.65071843556184    5.34223311271176
H         5.23572983046863   -2.05551997241728    3.13207043091992
H         5.69390540326844   -0.43464623279357    3.84443259198130
H         2.75117160797294    1.95082541765927    1.91036284505727
H         0.38439016129590    0.23582915771851    2.57119520610517
H         0.71223393035711    1.17797265035419    1.16318334507332
