32
 energy: -49.316532671278 gnorm: 0.153345860921 xtb: 6.4.1 (79825abcba525fcdf90b791dcacef51065a7a4e7)
C         3.75545188035262   -1.42721002139740   -0.43784344415567
C         3.00696751322860   -0.28905613337192    0.24531025058358
C         3.02247347874703   -0.37602820038625    1.79558347371656
C         2.27972783088274   -1.60967438752926    2.39226649273800
N         2.25389282631113   -1.64067987250672    3.87230801923250
C         2.11225049707696   -3.03157152954341    4.27887811858234
C         3.55012969726601   -1.14959787990376    4.42591318643336
C         4.67488536880347   -1.32671527314644    3.36829267196633
O         4.41128808815765   -0.45175647331252    2.23438734830056
C         3.36351489874465    0.29753674011053    4.74683778254996
C         2.88605502462206    1.19117079436642    3.83409212689116
O         2.74161272590175    2.39672602631493    4.43787515737966
N         3.17433307374224    2.23189136858681    5.76543737465688
N         3.55850094031558    0.96337756205701    5.91804216541616
C         2.46389960876439    0.99491459304008    2.42622224228260
N         0.99092227150842    1.07844430791301    2.40027252172183
H         3.56277016791828   -2.35741753608950    0.10811309385660
H         4.83741834622015   -1.27510123441899   -0.43925007218805
H         3.37075945913371   -1.49157760191895   -1.45992792447451
H         1.91381348417954   -0.33637950584063    0.18739969455387
H         3.29959310279574    0.73253555638714   -0.02732821596739
H         2.84687618525593   -2.43341967409294    1.93854952662735
H         1.28136342769547   -1.67529680957393    1.94506839699544
H         1.81198635548624   -3.02202818449580    5.33345624901520
H         2.91463236710629   -3.76561005443646    4.15563331579804
H         1.22815252719820   -3.48233063866935    3.81644690513123
H         3.83495597205602   -1.66227760697365    5.35235056621812
H         4.67047752117056   -2.35768225014675    2.99713928913740
H         5.59723639677700   -0.98854516262161    3.85401781510736
H         2.85534268213810    1.87704905156209    1.91196829824697
H         0.63290436564008    0.22464117431265    2.84357108453776
H         0.60114664176585    1.12323794170519    1.46242535545502
