32
 energy: -49.319484190222 gnorm: 0.144313130886 xtb: 6.4.1 (79825abcba525fcdf90b791dcacef51065a7a4e7)
C         4.09090934348104    0.11978211264471   -0.43888514013243
C         3.05161258241473   -0.75064688676619    0.25720227120498
C         3.01035392082221   -0.65202955880545    1.80630652051104
C         2.13312836995187   -1.73948407788079    2.49732217010977
N         2.13789088283858   -1.66404785225334    3.97598318186851
C         1.52444364772184   -2.84615318880547    4.56441401326588
C         3.48386209591184   -1.25008345450723    4.47082172467135
C         4.53406958919138   -1.67324861394046    3.40639582225511
O         4.39145094359700   -0.79699975931677    2.25200179401824
C         3.53467286285252    0.23315208879276    4.64242258984107
C         3.13565598723374    1.06715366051189    3.63998491832889
O         2.97772622540559    2.32130632916043    4.13084153476457
N         3.40359549767521    2.24177437493156    5.46843221808552
N         3.75820385802100    0.98753716914767    5.75328725164529
C         2.49694268396484    0.77907731243709    2.33312355157856
N         1.04200839641451    0.92726255361549    2.52938913176609
H         4.29442420581580   -0.38279036194293   -1.39097936451525
H         5.01380760726034    0.12389721640889    0.14595018258103
H         3.75515711415047    1.15360512230836   -0.56245112257443
H         3.21333770936656   -1.81136655307871    0.03517157744449
H         2.07641007907298   -0.35678377132832   -0.05498833385142
H         2.28413114222383   -2.76456768590697    2.13335186538138
H         1.10858715249714   -1.49819289724694    2.19217010515437
H         0.61554509827772   -3.04833639595463    3.98526805850298
H         1.23502772720162   -2.69546229797001    5.60909060487019
H         2.14626481808628   -3.74712802236151    4.54897386735056
H         3.57065340517278   -1.74979923208842    5.44293495095473
H         4.43527859084484   -2.73520322200861    3.15507945854511
H         5.53719861500528   -1.53850697638709    3.82662933134130
H         2.81202320423041    1.44768697026919    1.52718845081481
H         0.82057299574963    0.30340982429111    3.31389175369461
H         0.56058831668132    0.54264650176301    1.72081382990102
