32
 energy: -49.315076115768 gnorm: 0.143997495652 xtb: 6.4.1 (79825abcba525fcdf90b791dcacef51065a7a4e7)
C         3.70314540025560   -1.46119871066332   -0.27234242294551
C         3.03861990913973   -0.23876463739666    0.34925463353859
C         3.01126405340955   -0.37382847750677    1.89591589354667
C         2.17688646469029   -1.58791677267102    2.40521763729476
N         2.27470665670632   -1.73653900764957    3.87507964867704
C         2.10955498109599   -3.12514825478903    4.28058015505499
C         3.54887978743358   -1.12491341941969    4.35494126086387
C         4.73806131136188   -1.29139664506150    3.36846386811089
O         4.43129635190307   -0.45094673637764    2.21941343015665
C         3.29655745567251    0.31400863437985    4.66775591010978
C         2.76837302303616    1.25656237504855    3.83572947029652
O         2.78179972507931    2.44824595815570    4.48263817585530
N         3.26556414229600    2.20149824884373    5.77952921000019
N         3.61133082699944    0.91473913326242    5.84806258032065
C         2.43698142829285    1.03984160264757    2.40672947663140
N         0.97215164954482    1.02873618965940    2.22935076815430
H         2.97395498703181   -2.16884704796424   -0.68221554431632
H         4.38646394139513   -1.94668369695340    0.42849321746235
H         4.24062472590993   -1.13967235996019   -1.16929554867058
H         2.05539792764988   -0.12845144446973   -0.12157908358744
H         3.51901966218109    0.72566185326663    0.14259387061446
H         2.47480469608166   -2.46830032687301    1.82020297823090
H         1.12595610298909   -1.31457361627552    2.25739066927204
H         1.91924255070605   -3.16703236833516    5.35965918731672
H         2.89447423575089   -3.75673946531500    3.85301401254555
H         1.21529593593441   -3.48407117779226    3.76083914739843
H         3.80372679448509   -1.59204215957183    5.31363644705006
H         4.94078133495784   -2.34682334566545    3.15481408799740
H         5.71931442496808   -0.96884940787428    3.73469460077564
H         2.86224285783726    1.90547644086426    1.89129273712081
H         0.61960421118334    0.37370784756608    2.93668265693256
H         0.61800944143879    0.76340981412831    1.31410543281214
