32
 energy: -49.313953784675 gnorm: 0.146915239221 xtb: 6.4.1 (79825abcba525fcdf90b791dcacef51065a7a4e7)
C         3.91887051519998   -1.16321894839186   -0.43856226507330
C         2.82343054059292   -0.40385386011548    0.30015149419868
C         3.02173033737681   -0.43328749672359    1.83994449833414
C         2.30164827244428   -1.68656750076615    2.42334460884171
N         2.33925722805274   -1.73965518153245    3.90250618356298
C         1.96701800773165   -3.06174814731976    4.38567234289153
C         3.59714191206146   -1.16311070119212    4.46214249539226
C         4.68456283214744   -1.26493599424264    3.35663157066007
O         4.41650568069839   -0.34789845685624    2.25755685511716
C         3.40384581763847    0.30115082660859    4.68706710979308
C         2.77292243821538    1.14830707484174    3.82456124840650
O         2.69839448004426    2.37045649151460    4.40729388376025
N         3.34350055564044    2.24884373203058    5.65063104322670
N         3.70070040132862    0.97614731657102    5.83133122232989
C         2.35322115825620    0.90941506674368    2.42255884305353
N         0.88040933323681    0.99448153865703    2.39252801432945
H         3.72809155976024   -2.21747928404394   -0.20917320726528
H         4.92670587404226   -0.92474784482517   -0.09043884264465
H         4.02646255295304   -0.91358701026173   -1.49823012688983
H         1.82349890236109   -0.79129779632858    0.07520089405405
H         2.95765753969842    0.61756903164755   -0.07706122998891
H         2.75987557744956   -2.53635931245802    1.89993822096495
H         1.24454232813177   -1.50422389572104    2.19906407726990
H         1.78788518638383   -3.00994592301236    5.46623359568517
H         2.71399014397389   -3.79449652807969    4.06484382062862
H         1.03392859692759   -3.25771098714249    3.84752892463533
H         3.98446415299129   -1.65404425852332    5.36281915398385
H         4.62130113972496   -2.30078817217569    3.00495643780169
H         5.64945559499052   -0.99171051021539    3.79861477102299
H         2.93398051655543    1.65334499967620    1.87017054484331
H         0.56859881575936    0.15076884058367    2.88709177439903
H         0.46236257387327    1.08577740244365    1.47036165878853
