32
 energy: -49.318462828408 gnorm: 0.144466466529 xtb: 6.4.1 (79825abcba525fcdf90b791dcacef51065a7a4e7)
C         3.10661025158334   -1.56267583528433   -0.44837512107937
C         2.96289063486556   -0.23717487395328    0.28967227543759
C         3.02760564451780   -0.37265867237171    1.83518440323088
C         2.17108656344987   -1.54353494406789    2.40527951561039
N         2.28157946029411   -1.67566989435701    3.87581797828268
C         2.19232964966958   -3.09057234881714    4.20752101950770
C         3.60133335798190   -1.19997815204298    4.38556029379501
C         4.72878747486498   -1.30891070374301    3.32161107265506
O         4.44033798053048   -0.43643641199495    2.19184861842512
C         3.49947141346643    0.23688515828918    4.78187359804426
C         2.95581988075925    1.13676789139515    3.91336428034161
O         2.75780677303091    2.31724359393542    4.55058390690947
N         3.26044312727481    2.08902935924172    5.84368628593817
N         3.70502905651266    0.83910983714926    5.98526660960786
C         2.57801562430520    1.02977143131406    2.48345345290551
N         1.15510617058528    1.40274977778029    2.36714072643564
H         3.22983853885412   -1.50104987965201   -1.53534238484196
H         2.26588624690022   -2.19765798651908   -0.15894238160205
H         4.03120778286164   -2.01469537686247   -0.07744943128855
H         1.98958275132464    0.22864281990979    0.09923988458414
H         3.76544720444293    0.43859729545469   -0.03102380447542
H         2.57578997692328   -2.44210660133839    1.92065929728152
H         1.12219781081272   -1.45935389879806    2.09906088646200
H         1.50210090745196   -3.51353730030346    3.46787948753999
H         1.92590636112501   -3.30273397846779    5.24762898338288
H         3.07244245575382   -3.70692204995995    3.99735414708376
H         3.83871882886731   -1.77968924416162    5.28546912556893
H         4.87078159706659   -2.32887857121094    2.94721771844646
H         5.65335235345326   -0.87834251849430    3.72262251554068
H         3.15434574476048    1.79317224776155    1.95344516777411
H         0.52048212173763    0.61827782898438    2.55562493771008
H         0.94888547425036    1.89307551075615    1.50080215914470
