32
 energy: -49.318834283744 gnorm: 0.144940612241 xtb: 6.4.1 (79825abcba525fcdf90b791dcacef51065a7a4e7)
C         3.71961064686535   -1.65583170738850   -0.16312057943026
C         3.03272152376958   -0.36930948175935    0.27888166808262
C         2.99672421324751   -0.32801965541161    1.83070349420510
C         2.28012761755188   -1.57872075334093    2.42384825232839
N         2.43679787288165   -1.73661997866543    3.88763578998784
C         2.22620046084573   -3.11147128547243    4.31818659805207
C         3.67690824483843   -1.11711099016243    4.44099380547899
C         4.71612961164419   -1.18392471813905    3.28749395515358
O         4.40017787488070   -0.24629596380429    2.21894141826854
C         3.32366610767395    0.30266110079449    4.74345614000735
C         2.73299790896982    1.12859108628213    3.83317865957363
O         2.45814279607365    2.29263506313940    4.47211310386167
N         2.95161321908971    2.15847051160458    5.78181750486926
N         3.49310584088589    0.94816027420503    5.92992326604961
C         2.43467736273348    1.07547050178817    2.38162351703831
N         1.00048934975637    1.29687798405234    2.11442268790550
H         3.12751002877712   -2.57440491022506   -0.08488419425584
H         4.59680240053533   -1.67416671035929    0.48802376083906
H         4.07321008349180   -1.72950927961799   -1.19575177246259
H         2.07345835860616   -0.06798636999807   -0.15654618548236
H         3.68637405162372    0.45784439637458   -0.02470668193387
H         2.62723623217427   -2.47595920635507    1.89417722662289
H         1.22546150322382   -1.42124739762951    2.17105298341576
H         1.33740297363403   -3.57087213203767    3.86943884237160
H         2.08177771481946   -2.97500975649760    5.39444810228292
H         3.03173649847317   -3.80449093281108    4.05457499236763
H         4.00016847744052   -1.63102469274358    5.35403719948172
H         4.76177583813685   -2.18927866975438    2.85408073266045
H         5.74804426099026   -0.99763781709072    3.60603546857396
H         3.02853139295414    1.85666209198724    1.89900246005902
H         0.44338642497695    0.58967349162615    2.60754372919761
H         0.85645048218290    1.12779443505631    1.12237814408925
