32
 energy: -49.317679543967 gnorm: 0.142607863221 xtb: 6.4.1 (79825abcba525fcdf90b791dcacef51065a7a4e7)
C         3.71047190456923   -1.49199625743874   -0.43478973603763
C         3.20202945774304   -0.23977762115769    0.26931028599942
C         3.01052010116218   -0.29919331685749    1.80909778879023
C         2.33095069517212   -1.62784429326071    2.25904957195766
N         2.37091328917901   -1.71876938970244    3.73630624933089
C         1.94917134817872   -2.95963715779257    4.37059504692799
C         3.60986266129159   -1.12252690356698    4.31714145174555
C         4.77957458299551   -1.19371317418952    3.29649775449605
O         4.40404791543500   -0.26651456485715    2.23816880701564
C         3.36072753702961    0.30595530724922    4.67684481027581
C         2.86524366318002    1.21199350906680    3.78620186074470
O         2.74547815393043    2.41914561534911    4.39218943511104
N         3.17779834779390    2.23788073466655    5.71773879060566
N         3.56725207459550    0.96848277320589    5.84795036107321
C         2.25455599610910    0.96448681957317    2.45780798351329
N         0.83055707265909    0.75270838201382    2.78136598786423
H         2.97714258731764   -2.28745288222797   -0.60787257358664
H         4.54505713619535   -2.02007800681595    0.03252990609202
H         4.12280154337276   -1.15644437774027   -1.39091594733137
H         2.26988222868667    0.13262495731434   -0.17000362524725
H         4.01387481545367    0.47923081728710    0.10334334636312
H         2.88938826081372   -2.49981938048229    1.89315401858424
H         1.31374606338321   -1.72204127595449    1.86225545656217
H         1.83776598800987   -2.82564340117306    5.45319338962882
H         2.60448503997514   -3.77227816463555    4.04196599184223
H         0.94572125073329   -3.23449345981691    4.02971745853309
H         3.97328295184412   -1.69616239996379    5.17802513529953
H         4.97227752479577   -2.22862891634016    2.99238898373893
H         5.66249426948528   -0.78543908171644    3.80125952407549
H         2.26170748517003    1.84635538457396    1.81119939023029
H         0.73641230987480    0.10317662323719    3.57061593720454
H         0.38274628119364    0.49882212405892    1.90472690438384
