32
 energy: -49.310991677356 gnorm: 0.157815771349 xtb: 6.4.1 (79825abcba525fcdf90b791dcacef51065a7a4e7)
C         3.91377782962254   -1.42482301825040   -0.29183997261811
C         2.84407060225456   -0.55957987413157    0.36344838705784
C         2.95555753046870   -0.38960990981812    1.90287441967675
C         2.14611581423077   -1.55498446083643    2.54808049886968
N         2.39411560571865   -1.75142839169217    3.99447518218561
C         2.15560418472976   -3.15634640832756    4.29323770985701
C         3.70050452226408   -1.13565791122924    4.37136365743496
C         4.73071982132261   -1.29485416754452    3.21883599534892
O         4.39122030323670   -0.35710166679269    2.15763948685855
C         3.38569933787785    0.29667330504436    4.65656751294715
C         2.89012653919689    1.21871398624597    3.78255210213395
O         2.62508686492363    2.35639780157753    4.47118149321542
N         3.02403926868854    2.13082816170515    5.80038957302785
N         3.51795915558931    0.89357487402360    5.87283192037272
C         2.43970448908807    1.05831387207198    2.37890647028761
N         1.01492665073453    1.43802161683947    2.32284441702206
H         4.10089374541033   -2.46918943856699   -0.01840403182872
H         4.83741976443111   -0.86106532004236   -0.14066679624768
H         3.82683138952113   -1.36087507828907   -1.38048091661577
H         1.88995361913498   -1.02143065640814    0.08607951331418
H         2.87191890466215    0.43680032320799   -0.09487685063769
H         2.39313394236214   -2.37299078394399    1.85821070508318
H         1.07554978351629   -1.32233184586081    2.52006168173702
H         2.11593758683006   -3.24380657045329    5.38555723276516
H         2.84275741649817   -3.86172340063362    3.81565815205619
H         1.15618919005278   -3.40373475512686    3.92091487508755
H         4.17350449407397   -1.61898721841792    5.23444912285019
H         4.69096508246723   -2.33906975701775    2.88913836144238
H         5.75619793473332   -0.94249403590852    3.37775838392962
H         2.89853019702574    1.76559588756345    1.68243169535810
H         0.51653719705625    0.82714043332721    2.98018934788811
H         0.61293762751259    1.05601005374193    1.47081107919737
