32
 energy: -49.315590759029 gnorm: 0.142302328092 xtb: 6.4.1 (79825abcba525fcdf90b791dcacef51065a7a4e7)
C         3.37607127937285   -1.47976642396934   -0.49992495177718
C         3.17520420906528   -0.22511340426391    0.34139562039035
C         3.08878285649282   -0.36600841668963    1.88536180692975
C         2.49876526776634   -1.73804210994743    2.33144186555578
N         2.26652914760682   -1.71570221581995    3.79353591777841
C         1.96353729076804   -3.03779245981912    4.32288902171908
C         3.49512566102622   -1.13912546845963    4.41480886694899
C         4.73481898175314   -1.03195539354218    3.48385124934284
O         4.48676123513166   -0.24592882158565    2.28326502216404
C         3.30496471744391    0.28838687312568    4.81238101751685
C         2.75938346042066    1.11327857395780    3.87347252937463
O         2.80478700525413    2.37309651053022    4.37305057262867
N         3.32524343159127    2.28330181322416    5.67608580744237
N         3.66913660008800    1.01463983653954    5.90463498433850
C         2.31837014996491    0.91953935188057    2.47104546936518
N         0.84870048728983    0.81957850689817    2.38507028946899
H         2.74424147366214   -2.33299052740729   -0.22922118933630
H         4.41495708741958   -1.79153418125875   -0.63148343938466
H         3.19991230624142   -1.16901166351726   -1.53394024366854
H         2.30268828625427    0.36739275787235    0.04435813310351
H         4.08494001204192    0.38563309306889    0.28680129494170
H         3.25062436606220   -2.46304071326347    1.99209314273909
H         1.61921936430818   -1.88710489851964    1.69488612743962
H         1.77228829182410   -3.09153041662375    5.40127703690621
H         2.81335022163066   -3.69575970114968    4.11621150730332
H         1.10506200998028   -3.43776381782232    3.77361793664611
H         3.77607355743686   -1.66992046156332    5.33218429670572
H         5.09559256181799   -2.00750090054886    3.13914767127498
H         5.59031175298760   -0.59084167218380    4.00784567338582
H         2.58305753295129    1.80458398768400    1.88582536082169
H         0.53678303462359    0.01717879327463    2.94411628630412
H         0.55574523741514    0.66390701533370    1.42411637529032
