32
 energy: -49.309038099879 gnorm: 0.154422956521 xtb: 6.4.1 (79825abcba525fcdf90b791dcacef51065a7a4e7)
C         3.90020995566426   -1.26108684929026   -0.43747065305887
C         3.08842438525172   -0.24031910822951    0.35079294072069
C         2.99297858962840   -0.40216697457744    1.89217122277690
C         2.25635301970255   -1.72027535436681    2.27889813047118
N         2.09425163502293   -1.72714957652033    3.75057322571802
C         1.97725246048514   -3.08236264034598    4.26985170334764
C         3.29671188292834   -1.15798806300517    4.42734108197017
C         4.56219185406149   -1.32777673451009    3.54148595655104
O         4.32571332355469   -0.35620329009705    2.48275999480672
C         3.28102900613518    0.31282260036291    4.68903998133997
C         2.78591674229599    1.23328307642927    3.81310006563526
O         3.05540208443824    2.49165626121940    4.24048222411753
N         3.65667865697157    2.32365009451249    5.50027554642370
N         3.77269350555576    1.01726658466512    5.74502670249541
C         2.30991269851766    0.94869518693390    2.43786947148618
N         0.85085521668763    0.81402189619474    2.61201655096298
H         3.44897500680971   -2.23131333685860   -0.67311526797984
H         4.81542023664283   -1.29989744243446    0.15807479109727
H         4.10190797686697   -0.77490749512855   -1.39649915776402
H         2.04159857864474   -0.25670680634939    0.02758088469974
H         3.52838856643717    0.72567928745041    0.07350307991285
H         2.77477107522914   -2.61612575619181    1.91179132729371
H         1.29630209188222   -1.70445388605638    1.75062186142159
H         1.45016678304400   -3.00433561212658    5.22822383026509
H         2.87738569967403   -3.68257501141229    4.43515071508771
H         1.38087328584510   -3.65803539542778    3.55459763609279
H         3.55008399081134   -1.63419253857049    5.38195335502270
H         4.63212184096776   -2.33309858638645    3.11124771603088
H         5.52802700199280   -0.99084308042566    3.93475117891914
H         2.54492465844440    1.76992960315881    1.75508882686571
H         0.53566155822163    0.25182951342634    3.41093012949239
H         0.44533533786142    0.41839060973893    1.76790854102643
