32
 energy: -49.314555158556 gnorm: 0.147210564600 xtb: 6.4.1 (79825abcba525fcdf90b791dcacef51065a7a4e7)
C         3.85790788286423   -1.42042897658361   -0.42609737135661
C         2.99947397697843   -0.35544974844210    0.24564108699108
C         3.05218695460179   -0.41684965424618    1.79631932989224
C         2.35309203178000   -1.70153887140770    2.33522981453227
N         2.42932501417051   -1.71887690219696    3.81375597713442
C         1.98538053035967   -3.00997789509470    4.31963432448789
C         3.63120884797699   -1.12353294090682    4.46866896815884
C         4.80087148478950   -1.08313964279131    3.44628707630999
O         4.44267479628969   -0.36189505460868    2.23291200104735
C         3.30263590030457    0.30534907957418    4.75563979989072
C         2.78623657101371    1.14214564796288    3.81078129521155
O         2.73595437243946    2.35616869180144    4.41277853598214
N         3.08087602450139    2.24769341810089    5.77149151839954
N         3.45303879706484    0.97638381249795    5.93044812826903
C         2.39540677519969    0.92360664383087    2.39716110370011
N         0.92220619743784    1.00692738127993    2.39005286767257
H         3.75100408434766   -2.36062661815687    0.12624380558184
H         4.87867845746691   -1.03659945774536   -0.35906880044365
H         3.46722209217318   -1.63329052459711   -1.42551855457536
H         1.95031170122042   -0.41888270548461   -0.06389668530820
H         3.26581049049726    0.63849523430623   -0.13481821022486
H         2.72001721332916   -2.65434150519074    1.93074783602230
H         1.27976767878576   -1.65040366775321    2.11986050364473
H         1.22223850767440   -3.32907539178396    3.59979010433112
H         1.64255618397372   -3.09842792186840    5.35523393771981
H         2.82347758383568   -3.70022548189631    4.17889621070570
H         3.86741372891581   -1.72292255107613    5.35590741301053
H         5.04582178157652   -2.13359205350273    3.25337192748144
H         5.66755008611322   -0.57355247713880    3.88241604164906
H         2.63352935656788    1.85278087984462    1.87201458781305
H         0.61286139660293    0.16291434379700    2.88565150803135
H         0.50385724987876    1.03450241542331    1.46392512855571
