32
 energy: -49.311603615633 gnorm: 0.139540052723 xtb: 6.4.1 (79825abcba525fcdf90b791dcacef51065a7a4e7)
C         3.73130745943082   -1.55953407752265   -0.32559393794804
C         3.30055240162568   -0.22214980420887    0.26447001946074
C         3.10527990659904   -0.32053754591036    1.80178590582421
C         2.47450737101733   -1.63481423862964    2.35349906903153
N         2.31224137726285   -1.65393013825637    3.82504792346995
C         1.88728991966470   -2.97643139461150    4.26133690242870
C         3.56319645850778   -1.11918348307895    4.43907367509925
C         4.71406068750589   -1.18177585478443    3.39667223154808
O         4.46562198396251   -0.23282982556319    2.32030920898653
C         3.35540239813625    0.33778792519228    4.69611887102575
C         2.87337818867438    1.18104153540828    3.73891962978004
O         2.73697153337589    2.38822751563606    4.34131167159732
N         3.16392966298968    2.27194274992357    5.67586156269854
N         3.46179463195356    0.98869754520073    5.88695077471458
C         2.26360089490666    0.90585948262540    2.41556186111902
N         0.80412266200379    0.76320410135993    2.57952997208305
H         3.07207854306186   -2.37019379194668    0.00414666552122
H         4.75268366950254   -1.76879356074970    0.00119590477468
H         3.74761257309684   -1.48385422153818   -1.41682939877264
H         2.40764855533202    0.22671842604122   -0.18477255075117
H         4.14503240960809    0.47390926489055    0.18722793560586
H         3.13691923365621   -2.47689847218431    2.11229935816858
H         1.55495928100519   -1.79137118773226    1.77822074312800
H         1.09358173621773   -3.22135329354585    3.54549806220255
H         1.32214894931784   -2.97500416013021    5.19858401413976
H         2.75449866107633   -3.64353615634479    4.30103394767929
H         3.79678933906497   -1.63727498637335    5.37676673833542
H         4.68449606191235   -2.13453624065468    2.85626428039201
H         5.72293020074969   -0.88329179078091    3.70344400770506
H         2.45181197559220    1.78182513136671    1.78857958856196
H         0.45811656299794   -0.01929911369082    3.14666198226281
H         0.32414440410347    0.70258031542659    1.68541899334324
