32
 energy: -49.313473554552 gnorm: 0.151080435481 xtb: 6.4.1 (79825abcba525fcdf90b791dcacef51065a7a4e7)
C         3.70959752313611   -1.46919490261629   -0.39107584044770
C         2.91375424360957   -0.39192833598849    0.33587141073960
C         3.08733033786297   -0.34840383487481    1.87831382303081
C         2.29934218001937   -1.54630349597297    2.48962036750003
N         2.40931072908213   -1.71690525379704    3.95623335636991
C         2.13612172583120   -3.09676104426533    4.33214179521793
C         3.71485467091648   -1.17171127156007    4.43182642114016
C         4.72486165247011   -1.40522040668470    3.27408448106179
O         4.51085090559108   -0.48834596170354    2.16308567283827
C         3.38074377742554    0.24814592227706    4.75492350671255
C         2.77840884688114    1.06936423418712    3.84803460442064
O         2.58201684489432    2.27539174554508    4.43600464485670
N         2.91926850397551    2.13842618452748    5.79406964997784
N         3.39981827182472    0.90336318133302    5.94799088114355
C         2.51956371234090    1.06831749065298    2.38795673194459
N         1.10762583613097    1.44194542483786    2.17784625374171
H         3.43061954754905   -2.47187148121118   -0.04859697916717
H         4.75695538922014   -1.20668306420794   -0.22398445465235
H         3.54780893940256   -1.45414917230096   -1.47291973274761
H         1.82671436137905   -0.38770586201558    0.19837478117770
H         3.27367362095888    0.58933029575220    0.00240388353635
H         2.72004681440149   -2.44370916138271    2.01660523414674
H         1.24584227487703   -1.38394587959845    2.23505824576331
H         2.53196330921276   -3.19579251836441    5.34992707185849
H         2.39408275478780   -3.87778232141376    3.61014430661930
H         1.04868424630387   -3.12873224622293    4.45507751932311
H         3.96650748224534   -1.61408409476948    5.40302664102103
H         4.71947334978610   -2.42093723075955    2.86304012795818
H         5.71001063206396   -1.07163748652390    3.61937171811529
H         3.12960643126204    1.83938011011317    1.90925399371455
H         0.42709624146671    0.80723745874718    2.61108462726330
H         0.81832533917022    1.64728599485732    1.22515045543722
