32
 energy: -49.312482062748 gnorm: 0.150429952006 xtb: 6.4.1 (79825abcba525fcdf90b791dcacef51065a7a4e7)
C         3.78173582272754   -1.52103942967790   -0.28880970931011
C         2.99460677203847   -0.35102364194052    0.28895582317930
C         3.02219433192659   -0.29876756095797    1.84061940763245
C         2.20929345596620   -1.52172078405469    2.36326864006214
N         2.30968717392981   -1.66071104398167    3.83389929237600
C         2.18674022361055   -3.01850017315909    4.34500996662449
C         3.62694781304783   -1.14257160155187    4.30742453508730
C         4.77863291661714   -1.25557208371327    3.27018812811812
O         4.44266834668648   -0.37080666868116    2.16334772426138
C         3.43198699332226    0.30827652086711    4.60583079317241
C         2.84974308423050    1.23883758452440    3.79669389787574
O         2.61660475724364    2.36109981032603    4.52123164680030
N         3.11564230981666    2.09037508030471    5.80750861729683
N         3.61427602965550    0.85331432593023    5.83984366606078
C         2.38017649250890    1.06622845582377    2.40079182459941
N         0.90529679118750    1.07793550407859    2.44444546796980
H         3.24434376369986   -2.45963669213256   -0.11352206287889
H         4.70355039090147   -1.51022661135682    0.29764700923689
H         3.71264293626014   -1.25648669032215   -1.34806706848692
H         1.94857525197346   -0.43768874651967   -0.02550574778445
H         3.43788380564916    0.59366132386646   -0.04969863044972
H         2.68702568004143   -2.34722149939673    1.81884864721538
H         1.15369962043440   -1.38079788487478    2.10464475827538
H         2.10281577420547   -3.05091184447182    5.43784610782147
H         3.04108291196357   -3.66457161244251    4.12026840520365
H         1.26840815153280   -3.51458129141431    4.01451737997171
H         3.89936277251451   -1.68132026154836    5.22273469855436
H         4.78465231312671   -2.31235287037718    2.98062758359993
H         5.67444009584786   -0.85046806908037    3.75437775468236
H         2.59347397253268    1.79171659757919    1.61084427507830
H         0.47453588120144    0.44975104566895    3.13255850187363
H         0.58160122755357    0.82076514515926    1.51569716571329
