32
 energy: -49.319491999464 gnorm: 0.146254697224 xtb: 6.4.1 (79825abcba525fcdf90b791dcacef51065a7a4e7)
C         3.80958072512317   -1.40531352571881   -0.37195225957931
C         3.10594796601788   -0.24280187088016    0.31782283880328
C         3.13501671670360   -0.36800137264942    1.86528260879855
C         2.49800272731973   -1.71122563603127    2.33384039708447
N         2.26469224062835   -1.57635153957400    3.78969990807188
C         1.96296809957132   -2.92950236182866    4.23454459833593
C         3.51415861104067   -1.10168195661375    4.45407391207705
C         4.72705191995439   -1.17021780447709    3.48495074778060
O         4.51389896118116   -0.30148141076578    2.33575946547030
C         3.22210535679270    0.33631284235699    4.73495137083554
C         2.74280478005508    1.19229607248212    3.78773542397470
O         2.74374938203629    2.42870810318761    4.34457052826030
N         3.28735859589768    2.33715556066102    5.63799464940996
N         3.47884785374894    1.03787102194757    5.87292442774322
C         2.25455443216422    0.85531491905073    2.42873409951795
N         0.79237855951831    0.66476022049609    2.48390156957422
H         3.22825021368151   -2.32704169513872   -0.25814179306268
H         4.84917755532049   -1.54625627593551   -0.06672436586591
H         3.90098934887957   -1.18936766328289   -1.44050266886340
H         2.05433275985941   -0.07986182300494    0.05679629287670
H         3.71253872527322    0.61976774455966    0.01511446132957
H         3.25284745279249   -2.44391936222387    2.01849616755994
H         1.53094558021178   -2.03964200620301    1.93638966814482
H         1.03097445831060   -3.26060176419146    3.76110431456354
H         1.82279197441414   -2.92406221620234    5.31996597521152
H         2.66405984743813   -3.65527865269277    3.80983909997244
H         3.70269576917363   -1.72482959576159    5.33634001668753
H         4.84380858914331   -2.18402135647406    3.08590512267640
H         5.66633701810037   -0.84488358519212    3.94638384664022
H         2.50617022520888    1.70010651668439    1.78153811071287
H         0.61533569971819   -0.13254577264016    3.10569671673113
H         0.42963710679611    0.46239238896568    1.55602511327630
