32
 energy: -49.304202681326 gnorm: 0.146204585017 xtb: 6.4.1 (79825abcba525fcdf90b791dcacef51065a7a4e7)
C         2.78591482822143   -1.94445455385772   -0.25811098429140
C         2.67674823830507   -0.57514958944759    0.40174403172985
C         3.06587220512207   -0.37710008793884    1.89188178968888
C         2.12965446685911   -1.31232192163770    2.71555712861576
N         2.69106173495344   -1.85251167182965    3.97459191130789
C         2.77999710567135   -3.30571211830932    3.95908939418302
C         3.82469905345083   -1.04644298968539    4.51587733003855
C         4.94952571785198   -0.91122085238047    3.45216356908138
O         4.44703890864891   -0.80175935534865    2.08970150594629
C         3.26211749928340    0.30613495292214    4.80922212626433
C         2.91099622442503    1.18905527664629    3.83105040957010
O         2.21587261497786    2.14825643702410    4.49098770173750
N         2.21509386396578    1.89056700149930    5.87317233044900
N         2.85072199847271    0.72890905147366    6.03604691203044
C         2.99448011693716    1.16352054880934    2.35077756870042
N         1.95618676063153    2.06728946312231    1.81930654364448
H         2.24835747646080   -2.77273656816502    0.21671719114230
H         3.86558461738565   -2.11003566553409   -0.28431280835976
H         2.42271239383270   -1.71226415482829   -1.26357592087709
H         1.66728509671373   -0.15426155669378    0.33528892795974
H         3.38840845553507    0.06403521870462   -0.13546501760279
H         2.05491383553217   -2.17853767104201    2.04461991538539
H         1.10825031510973   -0.92498893244463    2.80348105724049
H         3.10897468705715   -3.70436801351583    4.92616327060692
H         3.35681322301912   -3.73816027996911    3.13562703920934
H         1.76127283270267   -3.69336961325739    3.85623931737893
H         4.19737685233855   -1.36172568530656    5.49769238080215
H         5.54302103676284   -1.82350691785814    3.57930367961706
H         5.62983624223627   -0.07988066370186    3.66912076399757
H         4.03186608503918    1.46814144599051    2.18681885860738
H         1.02367638921111    1.72528298910427    2.07839378715167
H         1.94279447392414    2.05798035613610    0.80283086798840
