32
 energy: -49.311872759643 gnorm: 0.144160399187 xtb: 6.4.1 (79825abcba525fcdf90b791dcacef51065a7a4e7)
C         3.43196241466577   -1.55341272556169   -0.42848454540722
C         3.24146660124701   -0.24081260266121    0.32192490990617
C         3.13677784110455   -0.32571201693511    1.86885218472047
C         2.45589657349488   -1.66569615182935    2.28168126633902
N         2.30403384742454   -1.69830450532616    3.75410312022857
C         2.16226855152496   -3.09030294043935    4.15682430217558
C         3.46927914833206   -1.06312545705598    4.43719988216082
C         4.75193824760261   -1.12186515205368    3.56179007788165
O         4.49116823209616   -0.27332122400801    2.40734219764222
C         3.18276966758435    0.38631452483851    4.65867750463413
C         2.74198780205998    1.31073744115323    3.75822873294650
O         2.70929315635529    2.49955080538503    4.40971531372592
N         3.15645944385699    2.26661044235893    5.72220146551617
N         3.50732644895023    0.98458849859732    5.83758140892778
C         2.32884466872433    0.97039005102275    2.37536731850458
N         0.87477798552569    0.73215016646368    2.45439052158881
H         2.70500288139977   -2.25147379725150    0.00130770791525
H         4.42717611485833   -2.00167916499794   -0.37952145807460
H         3.26504663790006   -1.35794559167844   -1.49183766244743
H         2.41678622864853    0.36150289441396   -0.07518613269921
H         4.11105750232986    0.42756661783165    0.29562021582368
H         3.19215859243050   -2.43007495736766    1.99934119189833
H         1.42786823216259   -1.72640388362476    1.90685301138567
H         1.45598551100496   -3.66055449203874    3.54171285317835
H         1.80276276938238   -3.13139088504886    5.18972598084279
H         3.10279195404500   -3.63723946975901    4.03462862815996
H         3.49105327104981   -1.47868963497150    5.45163816320137
H         5.03787289984921   -2.13837317517066    3.26918115716408
H         5.61595818659569   -0.76069519335541    4.13103972428924
H         2.72115688108113    1.72727251709159    1.69048334490878
H         0.77599231903961   -0.00626198433645    3.16054851872161
H         0.63049225972256    0.26865134141157    1.58319470868848
