32
 energy: -49.304641595265 gnorm: 0.154779695341 xtb: 6.4.1 (79825abcba525fcdf90b791dcacef51065a7a4e7)
C         3.48481463825669   -1.56265714171673   -0.35514261206926
C         2.95972710832727   -0.31548440906499    0.34568928485064
C         2.91574872536053   -0.29683782620530    1.89774271438597
C         2.03178039875559   -1.46500945635151    2.43024591324754
N         2.18499850569508   -1.84502225564125    3.85301299732246
C         2.29649806696414   -3.27042000222685    4.12824108255642
C         3.42383020144629   -1.20208792995581    4.38197584441898
C         4.61374134070283   -1.33740475298948    3.39161839902863
O         4.31939558153272   -0.54931289130736    2.20290081520884
C         3.21697104441248    0.23834936626654    4.72015621571845
C         3.05654518190609    1.21481187665593    3.78183916360243
O         3.13799799540076    2.38773125059447    4.45741782420072
N         3.39518657620064    2.10902062447028    5.81130601206586
N         3.46138543296593    0.78307289354501    5.94352089981439
C         2.58849620263907    1.20465523275332    2.37483656741110
N         1.16760997030717    1.59191112229061    2.46664082726728
H         2.98504227357293   -1.52693462802399   -1.32953077390914
H         3.09616223391539   -2.47072402286954    0.11192734276087
H         4.55548575176519   -1.73571844945141   -0.49832527704437
H         1.94624730002023   -0.16618186159403   -0.04308608104598
H         3.44669266434646    0.60821500166640    0.00915549103006
H         2.15728437255167   -2.42494138641421    1.91173644557982
H         1.03730259649203   -1.02728078665192    2.28730735024150
H         1.37852780415915   -3.80822783114350    3.86276416237940
H         2.60940011154968   -3.23725634778918    5.17648293817328
H         3.04737474421730   -3.77360445040082    3.51046665282973
H         3.73266933210763   -1.69103720301711    5.31353353104975
H         4.72072567787498   -2.38977308948934    3.10571211473694
H         5.57655044344204   -1.06457947211979    3.83836703774044
H         3.13100813301498    1.90313481235331    1.73167789516389
H         0.64018663579120    0.90766655603653    3.02099110110642
H         0.75311903676486    1.61013599733031    1.53854926990641
