32
 energy: -49.313837874169 gnorm: 0.152690564805 xtb: 6.4.1 (79825abcba525fcdf90b791dcacef51065a7a4e7)
C         3.23639730043158   -1.61130187777492   -0.30357212055142
C         2.84703756989395   -0.31665830176871    0.39971950000558
C         3.04306839382386   -0.31435290763070    1.94008252553415
C         2.10303932624156   -1.43130353160071    2.48629794264068
N         2.31160764160378   -1.81630448516461    3.90066183533255
C         2.30936956751174   -3.26682703046257    4.02683918319536
C         3.56513100529084   -1.20799736096794    4.43592983938950
C         4.72301381527188   -1.29227109697039    3.40287012700205
O         4.46022421874427   -0.57916205050538    2.16061619999844
C         3.26369914724057    0.22624270093714    4.72594803957014
C         2.80411234063012    1.22096545219317    3.91418391393956
O         2.89476512858779    2.41517948482222    4.55012090752412
N         3.38475850517935    2.11301136863002    5.83286785321897
N         3.50236931266543    0.78856556861126    5.94246471198083
C         2.63123816465092    1.15767083130090    2.44281121452629
N         1.25051764580734    1.61754763110441    2.19901415464008
H         3.17758095117888   -1.49161224684278   -1.39109031956740
H         2.53653568756320   -2.41722484035807   -0.07017889726655
H         4.27137773429071   -1.94439186037236   -0.18251555293948
H         1.81277800632107   -0.07257175214499    0.13268435270785
H         3.56617739767836    0.32353402780075   -0.12621085774434
H         2.19757283039727   -2.33179258021065    1.86480335642264
H         1.06419716270919   -1.11094178730177    2.34773665516322
H         1.29447455722725   -3.57402826877500    3.74755406283607
H         2.55232978703901   -3.63318713450295    5.02912113312357
H         2.94033138833037   -3.76585352347611    3.28419838253311
H         3.84920736993840   -1.76190321611924    5.33856024134863
H         4.79571568898512   -2.35649193095096    3.15223967243901
H         5.57765404920002   -0.73323517950442    3.80047328139341
H         3.35000499627240    1.82395715225570    1.95775165223781
H         0.62152435904400    1.08620300760800    2.81196648746150
H         0.96156770854801    1.58985904831198    1.22472975444225
