32
 energy: -49.320472841592 gnorm: 0.138113735209 xtb: 6.4.1 (79825abcba525fcdf90b791dcacef51065a7a4e7)
C         3.61140706293328   -1.29625218157512   -0.51276060982299
C         2.91981670668206   -0.17274982686702    0.24997612528278
C         2.99662741785444   -0.37772884107814    1.78725793137774
C         2.11811131221458   -1.53178179860740    2.35818335240840
N         2.25003930459856   -1.75979343824303    3.81515190987727
C         1.92006710033328   -3.10710983428843    4.25764286633283
C         3.48470236918230   -1.21206802150652    4.45034808406213
C         4.61572169749219   -1.33228854567418    3.39141025154188
O         4.39083419329321   -0.60759352690001    2.14842174244023
C         3.40704238703307    0.25186734538186    4.73823422423227
C         3.04578973994728    1.17236685056040    3.79917535901678
O         3.08689221006074    2.39624709892052    4.38159158385641
N         3.54574893401243    2.19905233076632    5.69589882842012
N         3.74112829780251    0.89380331916600    5.89122514380814
C         2.47826278309634    0.99850321848357    2.44031043534374
N         1.01756291261292    1.10021708838291    2.62285633026258
H         3.68203368604868   -1.05095386329546   -1.57827523593064
H         3.01883678471804   -2.21280006140414   -0.56366192128775
H         4.65338424310341   -1.45925987436044   -0.22207147036256
H         1.85207101312978    0.01197723468860    0.08757568300999
H         3.49532886558153    0.74449404259991    0.07373625646916
H         2.36663409509805   -2.43649888748926    1.78739789283392
H         1.04529025953585   -1.31891693711333    2.28913660190018
H         0.91675548074780   -3.36687585602065    3.89949196926002
H         1.84302789598974   -3.04448577929780    5.34757941966450
H         2.57720658715184   -3.93273888807431    3.96582104887434
H         3.68723173662338   -1.75904343801857    5.37881588671933
H         4.83653780934210   -2.38656596659580    3.19039650044969
H         5.53561399312197   -0.94196971587892    3.84137550321290
H         2.73568404142096    1.83951217100240    1.79047643404771
H         0.72779921833049    0.70910834471168    3.52659366847202
H         0.52167787277543    0.68224123426717    1.83998786722402
