32
 energy: -49.312126721277 gnorm: 0.146961212595 xtb: 6.4.1 (79825abcba525fcdf90b791dcacef51065a7a4e7)
C         3.42633358249886   -1.52292448182799   -0.42541781498504
C         2.77891496634989   -0.34491274781912    0.29253731747496
C         3.03331940612911   -0.33395596201578    1.82430425441668
C         2.24144090032796   -1.53499408992109    2.42432129351464
N         2.32874476228447   -1.69306869752981    3.89385936204596
C         1.99832489015401   -3.05133884833683    4.30112620204139
C         3.66265568089513   -1.19008825044959    4.33608388280526
C         4.80491487666392   -1.25546388943122    3.28442947981840
O         4.45670753809302   -0.45688628657231    2.11746625939619
C         3.54678196751207    0.25673623331887    4.69004497246849
C         2.94378077064359    1.14111021252731    3.84510321738843
O         2.66439719473784    2.23751526144860    4.59251321889281
N         3.19987418280694    2.03026683558630    5.87592713666706
N         3.71939010217595    0.80239137504237    5.92517660274912
C         2.56915770547167    1.09055841353158    2.41125129405220
N         1.16140465000392    1.53274826674711    2.40774751919879
H         3.64452019099030   -1.29699902263615   -1.47510019165993
H         2.71885719035334   -2.35482527530558   -0.39065118583905
H         4.30472580218070   -1.92625305659245    0.08697002159999
H         1.68750428754088   -0.38854579676357    0.20594780876821
H         3.18780444436832    0.61159006966146   -0.05606388998627
H         2.68142743946877   -2.38793586904242    1.89049099057790
H         1.19478643292234   -1.38882439841033    2.13419587089858
H         0.94548227243007   -3.12861389871480    4.59766565171092
H         2.54426149434233   -3.42649867683606    5.17234765815316
H         2.26839361525239   -3.77470948259992    3.52494746947439
H         3.96309841059377   -1.85006520024337    5.15852980813199
H         4.77360558198845   -2.32647831592712    3.05504988714189
H         5.81914558174984   -0.92724416418662    3.53864834973471
H         3.08082223479294    1.88330383280473    1.85844021314407
H         0.60065999006366    0.78157506726253    2.82604702299969
H         0.78910169798954    1.58720564759497    1.46333568081106
