32
 energy: -49.320444849045 gnorm: 0.138325175451 xtb: 6.4.1 (79825abcba525fcdf90b791dcacef51065a7a4e7)
C         3.44415119002624   -1.30486886685051   -0.54415720493100
C         3.03840878352896   -0.12501438554708    0.33085059715398
C         2.99349564213633   -0.35686785169139    1.86557486344602
C         2.19891604265857   -1.61406803092303    2.33213223556178
N         2.26985313752747   -1.75578249264536    3.80421808698190
C         1.86246265313337   -3.06137341973688    4.30362452031694
C         3.51521726649685   -1.20794739056998    4.41807088997598
C         4.69797249936606   -1.34988010783433    3.42009676715051
O         4.37283649841063   -0.43768498640026    2.33245508813724
C         3.36470013452333    0.24895061770998    4.71270516062915
C         3.02030149087174    1.17013943093012    3.76800657406487
O         3.24463538803985    2.37786027745656    4.34234599120950
N         3.65074204205293    2.19997583805151    5.67661483816448
N         3.70507752429133    0.88092328147920    5.86935429718260
C         2.35194121921159    0.99558653301155    2.45588788839179
N         0.88411556738579    1.05829707707414    2.59324953391907
H         3.63622013276133   -1.03043276736031   -1.58736148286449
H         2.73695206163673   -2.13728958673455   -0.57128001552127
H         4.41801775805700   -1.62216409792289   -0.15984511271139
H         2.04007256506378    0.28031447106528    0.13182244860677
H         3.72597778579360    0.69052605265725    0.07442566433632
H         2.68993211866497   -2.48879683835300    1.88511387994392
H         1.16007324702436   -1.51748486358405    1.99672008758961
H         1.00913651641919   -3.35689706415805    3.68162375222512
H         1.57589621379891   -2.95880949235515    5.35489938282054
H         2.58239752139430   -3.87560403027381    4.17179911555080
H         3.75643584209454   -1.75647158348097    5.33632337589795
H         4.77846855625054   -2.39184183823336    3.09069830163888
H         5.71705256474031   -1.17496126776171    3.78327526193427
H         2.53797243878737    1.85803947601846    1.80981249600359
H         0.65268292800032    0.35861369640180    3.30777899209832
H         0.40559835801855    0.76333272519217    1.74619218306850
