32
 energy: -49.320140414342 gnorm: 0.147203829319 xtb: 6.4.1 (79825abcba525fcdf90b791dcacef51065a7a4e7)
C         3.73552994910827   -1.36528487863967   -0.35637899106301
C         3.00615929339477   -0.17681500854296    0.25834038569562
C         3.08357622568884   -0.35951588972530    1.79839838808747
C         2.35545028306855   -1.66650953725763    2.23564527915814
N         2.33567136067195   -1.70137964488457    3.71569411713137
C         1.87704384303450   -2.94302017560653    4.32226725438736
C         3.54632490384612   -1.13126723109315    4.37687490941019
C         4.77954450828218   -1.17882622536983    3.43246261853941
O         4.47583643043094   -0.41718405442992    2.22895096208842
C         3.25165957331548    0.29138658104777    4.72507708302633
C         2.82251120635711    1.18326477693878    3.78697296257000
O         2.80083905750387    2.39418803203656    4.39687141775173
N         3.30195386425700    2.21144651165744    5.69776660569600
N         3.63556254840018    0.93041450370950    5.86408765377891
C         2.37134484459648    0.95517373746460    2.39296697586942
N         0.92207822060620    0.77610263989347    2.60479858172701
H         3.08151042313555   -2.23454112095867   -0.22548647583717
H         4.70265725034654   -1.59039851218068    0.09944897138846
H         3.89928422717673   -1.15363667343035   -1.41712292987063
H         1.97202783467644   -0.18293450105307   -0.10375564435961
H         3.65183131976804    0.65869074573253   -0.03939913045408
H         2.78092263851291   -2.59350087434783    1.82854214674681
H         1.30425926740869   -1.65173781512060    1.92612442010604
H         1.57185085099554   -2.71186855017740    5.34979381037502
H         2.69441227653544   -3.66932500869928    4.36926335392339
H         1.02371951788652   -3.37768314854839    3.79164374117113
H         3.82744219094855   -1.68576296264775    5.28006939050375
H         5.05733073997032   -2.16933972629982    3.05512327884888
H         5.66194089655199   -0.68157231462174    3.85095337145393
H         2.55023054317918    1.85342815879889    1.79548484836348
H         0.70409216531856    0.13549674122291    3.37666410562650
H         0.37821449547252    0.48926974350578    1.79521353122119
