32
 energy: -49.314772384024 gnorm: 0.148986435561 xtb: 6.4.1 (79825abcba525fcdf90b791dcacef51065a7a4e7)
C         3.78274856212677   -1.55747760128609   -0.27490953903656
C         3.04913967355576   -0.35966865187587    0.31618589044200
C         2.96665502998591   -0.37933546293600    1.86665715191967
C         2.19506250221747   -1.63722689945903    2.36859213013630
N         2.30661007617355   -1.72068253196034    3.84261519442318
C         2.13456943936743   -3.13719592069169    4.13215488124003
C         3.52579644066410   -1.17090090494450    4.50533307632774
C         4.65716449526576   -1.22460564480590    3.44131748749906
O         4.33708027720122   -0.30332028150141    2.35985686325729
C         3.25421693950774    0.27623538611184    4.75842872839635
C         2.83417318394938    1.13888319834438    3.78937952275889
O         2.94160943225874    2.38215363019226    4.31996130469457
N         3.39735010286331    2.26709868253657    5.64506567884858
N         3.60241182194257    0.96936511082716    5.87709524087112
C         2.32197549147975    0.99298354820981    2.40547341963497
N         0.87948100114282    1.30355939292023    2.41354152263865
H         3.14370555377956   -2.43786055153432   -0.40541124941522
H         4.56225312628184   -2.00015909082459    0.34974734822532
H         4.22348374412686   -1.25392620588290   -1.22905689561380
H         2.07801671235773   -0.20514927732628   -0.16715954493210
H         3.67945550533468    0.51063166978048    0.09507426215114
H         2.41066146862196   -2.62119085028695    1.93109395794755
H         1.17219609297231   -1.41574277360737    2.04345675483801
H         2.04911697282517   -3.34419270089258    5.20557691839156
H         2.94774949869409   -3.80770960243491    3.83725134474810
H         1.22839837921477   -3.46958844963983    3.61541042059613
H         3.79008177442143   -1.80129747776765    5.36265806593051
H         4.77330531506141   -2.26835054967214    3.12862745828770
H         5.63354588350900   -0.89325542129260    3.81267414778551
H         2.74670696506918    1.78772130226226    1.78592433217424
H         0.35792932563692    0.61553350769617    2.96876620759439
H         0.41324250768952    1.52363519993860    1.53736967040770
