32
 energy: -49.314407908172 gnorm: 0.155055382897 xtb: 6.4.1 (79825abcba525fcdf90b791dcacef51065a7a4e7)
C         4.18401534908745   -0.36447335216197   -0.26480649139968
C         2.81377367601769   -0.67222249325635    0.32684400978278
C         2.93115811155980   -0.59176210839561    1.87309711105400
C         2.05693656695462   -1.66897457539064    2.58368462223723
N         2.21108882827253   -1.65756647203336    4.05618543219474
C         1.77035394957116   -2.99106715238061    4.44020378057125
C         3.59127495974286   -1.25030134639359    4.45253323200865
C         4.61452263994219   -1.59434705524075    3.33467646018588
O         4.34845696452233   -0.74902360669849    2.17907487381616
C         3.49631003127536    0.22809816254326    4.64575027267713
C         2.86149682213283    1.04522031601727    3.75750597370567
O         2.83926633110347    2.30257839917259    4.26479029853649
N         3.39429547085670    2.18061679034317    5.55083338618600
N         3.77681719976842    0.92351879480536    5.78187928295766
C         2.45479884773049    0.87190337908264    2.34209533586686
N         1.03293912515537    1.24157400638455    2.20435875441944
H         4.29927866592239   -0.70794920785076   -1.29883720043646
H         4.90725889467701   -0.92259693502951    0.33453259146060
H         4.49239706901026    0.68374621046123   -0.31888597953381
H         2.46147675615872   -1.65638969925043   -0.00160788317103
H         2.07821470107413    0.09918048604598    0.06703352671305
H         2.40648077408475   -2.64053385416828    2.20956693100226
H         0.98445934294092   -1.50593037374427    2.42801475734246
H         0.69774192522991   -3.02475554251797    4.21491907394401
H         1.78454547067797   -3.07994474140296    5.53094567422330
H         2.32415706646749   -3.80311387484249    3.95798199822550
H         3.78165875928327   -1.72736433703187    5.42125281293185
H         4.65863312083453   -2.62040008716635    2.95265996375018
H         5.61934181746712   -1.22775473559831    3.57335583552419
H         2.98267207803478    1.55664827388958    1.67252810708684
H         0.48132362065722    0.72742924574492    2.90081099471139
H         0.65160975585575    1.11793812444117    1.27012597071763
