32
 energy: -49.318475039546 gnorm: 0.145211893951 xtb: 6.4.1 (79825abcba525fcdf90b791dcacef51065a7a4e7)
C         3.29848586414681   -1.53467640397071   -0.44506527105200
C         3.16114479717594   -0.21331199893583    0.30156423979969
C         3.13909711489978   -0.28811007522235    1.85239330279253
C         2.47486761806239   -1.61486329446779    2.33000161395309
N         2.36483102981920   -1.76068175393197    3.79928055994053
C         2.13451088528219   -3.13404739023054    4.22444034330832
C         3.56938389159354   -1.11441720714666    4.39866754184425
C         4.79711193240162   -1.20179359369629    3.44995458626242
O         4.50856011201965   -0.28718459914050    2.35405041828574
C         3.29678984631058    0.33805903559092    4.61780570016778
C         2.83588175428377    1.31464142750352    3.78503625745032
O         2.73337672243362    2.49338817763269    4.44747851625140
N         3.21099464609792    2.24110290855496    5.74558177283890
N         3.50698799535949    0.94228036113614    5.81939489736747
C         2.36568703619799    1.00686919749217    2.41280359405225
N         0.90417304454283    0.83505997432954    2.52129910149618
H         2.43002629138089   -2.17914656211538   -0.26923299820023
H         4.15945768823217   -2.08819804433051   -0.06279336991188
H         3.48071082682277   -1.26564005806072   -1.48967124273021
H         2.30289480373901    0.40684020638240    0.01978942422317
H         4.08701814187433    0.34570191519138    0.11751792333779
H         2.96626503536003   -2.46873141124941    1.84470742743627
H         1.47216875599025   -1.70466938367868    1.89692682105097
H         1.59470092120797   -3.10713832132528    5.17851883300638
H         3.05492868085297   -3.72090101828766    4.30351246610796
H         1.41066184980891   -3.68224862838264    3.61274303770989
H         3.69908664093691   -1.57926980110201    5.38321921033146
H         4.83292121525983   -2.22627343648167    3.06288105408141
H         5.64315077721155   -0.68145400519484    3.91307913025490
H         2.56444981693486    1.88613806511058    1.79375140403390
H         0.74225372787301    0.09937319606880    3.21859195747118
H         0.55720469326660    0.49009116907506    1.63017716438680
