32
 energy: -49.310031962096 gnorm: 0.153795100007 xtb: 6.4.1 (79825abcba525fcdf90b791dcacef51065a7a4e7)
C         3.61412727953956   -1.61891646156281   -0.12591841352303
C         2.75821984513080   -0.51001643639891    0.47415266442949
C         2.98908656132545   -0.32934727210388    1.99901687862866
C         2.02722140370541   -1.35121005035359    2.67739473738121
N         2.37006435431463   -1.97605803879451    3.97515257468787
C         2.56092295012083   -3.41507856904072    3.86230624758032
C         3.50919162230881   -1.15520167473472    4.48156556214944
C         4.67640231853567   -1.18884890114892    3.45614170241480
O         4.42093455037747   -0.54251311613130    2.17639017241443
C         3.09917383743427    0.26227370622642    4.71537155338476
C         2.79436475737124    1.26649025919787    3.84457024290963
O         2.78142801455426    2.46385490997440    4.48091250396243
N         3.01940582427548    2.17478054567624    5.83613993126402
N         3.25180411995209    0.86414195801240    5.92679298262900
C         2.63617935861900    1.19564998649465    2.37188957696008
N         1.33023666403200    1.63897830621711    1.84721205090072
H         3.57594703449600   -2.50297916333995    0.52019010220176
H         4.66708783916267   -1.32736943451912   -0.13397373875765
H         3.31596922478651   -1.76937042470732   -1.16767342801137
H         1.69693322886968   -0.72825661270724    0.31099382991635
H         3.03053926284082    0.38385495058467   -0.10069264664882
H         2.01054178226611   -2.18049224764445    1.95761319543774
H         1.03550727281186   -0.88887791867987    2.61594553950319
H         3.23267177898201   -3.80485125145692    4.63639631019337
H         2.95092708016268   -3.63771509865460    2.86423397721440
H         1.54783809809782   -3.82631481993882    3.91886992584499
H         3.78858050437996   -1.57839817923222    5.45372773945841
H         4.79132199886050   -2.26686532033443    3.29695237781919
H         5.57842596239640   -0.78385781730864    3.92874610501572
H         3.41270010955493    1.76231441607332    1.85059028285835
H         0.57811363420022    1.23685361184522    2.41841858505609
H         1.22258498680257    1.22992105412395    0.92278136044211
