32
 energy: -49.313471840372 gnorm: 0.140957271416 xtb: 6.4.1 (79825abcba525fcdf90b791dcacef51065a7a4e7)
C         3.63502037053484   -1.40221420872144   -0.49521912456237
C         3.02204971709033   -0.27483974427878    0.32673943882128
C         3.12358470782006   -0.46161493418858    1.86490630272726
C         2.38911521350591   -1.70331973029885    2.45508285331358
N         2.37346446047210   -1.83048924005492    3.93012002052282
C         2.11837484102444   -3.18138049805974    4.40966507384699
C         3.54541943437769   -1.09150026905118    4.48535602991293
C         4.76403098488210   -1.18392452060626    3.52543381011066
O         4.52966619320136   -0.52805228109557    2.24649579508623
C         3.19883621529514    0.34432831327339    4.70961614884827
C         2.86355934482257    1.25770864809558    3.75411620656122
O         2.59893992949027    2.44493848108181    4.35348488451469
N         2.98821083996866    2.27521066826875    5.69382045099304
N         3.35069983730072    1.00621691741916    5.88941450627717
C         2.49812003647325    0.93831465963802    2.35294852663295
N         1.03692992742618    1.09989716493736    2.22595495007378
H         2.85515025071350   -2.06211153251741   -0.89122281254342
H         4.32440193770229   -1.95549984824036    0.14697909282610
H         4.12764011327109   -1.01623292163017   -1.39251080631211
H         1.98991537959017   -0.04376403181295    0.04058986790879
H         3.63874441887429    0.59245588989013    0.06009927403424
H         2.86550886348198   -2.58696223191450    2.00977661740522
H         1.36571837022976   -1.71475293893309    2.06322561643554
H         1.11213864118748   -3.49549852446563    4.10766634779431
H         2.35995469949764   -3.09752079346655    5.47381977218382
H         2.70096085899141   -3.98395108876478    3.94584442837591
H         3.95222820241715   -1.56250947011650    5.38807950454096
H         4.94782970078923   -2.24535791147950    3.32482385571198
H         5.60465139123475   -0.70830860707058    4.04328145641613
H         3.01288035725622    1.68702580976922    1.74442620014466
H         0.47168729311303    0.38840597726454    2.70339737828604
H         0.69840054280196    1.41125857662252    1.31934547635164
