32
 energy: -49.313586393039 gnorm: 0.146633361057 xtb: 6.4.1 (79825abcba525fcdf90b791dcacef51065a7a4e7)
C         3.83299059747244   -1.50220381667148   -0.41819541398887
C         3.05450575883895   -0.38475888392448    0.26561761267291
C         3.08793005036093   -0.36202472277810    1.81787969974811
C         2.33257596253187   -1.59371903235251    2.40264797543358
N         2.35922866320298   -1.63454988319355    3.88243652974472
C         1.98795181195610   -2.94236914202907    4.40368854944560
C         3.67543541726596   -1.12736285192656    4.37052598326924
C         4.88316724143301   -1.09464393520605    3.39312107369545
O         4.47362719810985   -0.27157005516703    2.26369465119702
C         3.40740338312451    0.32339766714233    4.60604463571617
C         2.81616337243560    1.21699610655143    3.76249768901005
O         2.54790703094991    2.31233932365687    4.51552006294611
N         2.96096402324229    2.07373750845660    5.83812805292548
N         3.47894130293719    0.84444986809543    5.86162028059946
C         2.40782632024079    0.99394200993025    2.35454278879339
N         0.93262091909797    1.01326097663870    2.32792288721123
H         3.67561338986485   -2.54735581904242   -0.12945590407732
H         4.89549159199206   -1.26071870190484   -0.33715796041183
H         3.49850120424224   -1.58332569731581   -1.45661932191414
H         1.98681712616366   -0.51044508259874    0.05390361505119
H         3.32787083383580    0.56445559297104   -0.21174435774010
H         2.74847644035795   -2.53436551555675    2.01757186463079
H         1.31219337738702   -1.68203417404002    2.01272012903885
H         1.12001092527588   -3.23515833861241    3.80091349694902
H         1.75076918361274   -2.97559975295462    5.47161112496327
H         2.68451605318714   -3.76425917935425    4.20887930669274
H         3.93428021503504   -1.58754647929183    5.33150627606274
H         5.06682247451114   -2.11269222306296    3.03185163188289
H         5.72585946722365   -0.58840394597223    3.87748688475936
H         2.69340423023309    1.91709331188551    1.84260243674710
H         0.55271421166482    0.42768085063781    3.08054299999195
H         0.55979983969258    0.61518900487900    1.46999983455910
