32
 energy: -49.317976860295 gnorm: 0.141850536153 xtb: 6.4.1 (79825abcba525fcdf90b791dcacef51065a7a4e7)
C         3.60439365549958   -1.33999878970019   -0.51120160728796
C         2.71103563961315   -0.37022704633953    0.25285094586344
C         2.89735383637907   -0.37079220431971    1.79442054421967
C         2.05614083867181   -1.50835809559182    2.44855289990639
N         2.33574457007473   -1.65723194650678    3.89486199953785
C         1.93485430095916   -2.91389678656028    4.51132112125039
C         3.71277913155855   -1.26406194499833    4.31565098647980
C         4.78423259992392   -1.28844730924101    3.19030666657216
O         4.31910507498590   -0.64465912511015    1.96966304470211
C         3.49345229590861    0.13794050508465    4.78287805000645
C         2.96213698955591    1.04250889601022    3.91160632309481
O         2.77870345029347    2.19585511278594    4.60075476189473
N         3.19006507784781    1.96533547414219    5.92532303445648
N         3.69083240455848    0.73053488441618    5.99240532803892
C         2.62752115588872    1.06578599943708    2.46719651869883
N         1.25952006700953    1.58801667473187    2.28509504041700
H         3.39163118915925   -1.16130379729924   -1.57105114182399
H         3.32942149497060   -2.36799560149837   -0.26340459527912
H         4.67856637490634   -1.20753413480209   -0.35184599695589
H         1.68809164276370   -0.70716198299766    0.05125907570786
H         3.02312047641319    0.63509995246000   -0.05623112434558
H         2.39529265295326   -2.41367504674759    1.92754436649323
H         0.99154184369185   -1.28940789940428    2.30814740796900
H         0.93002426529815   -3.22321636789249    4.19983652643597
H         1.88771542038522   -2.75662076070472    5.59338427951626
H         2.52887534621496   -3.80815005094530    4.29659871531399
H         4.11684257510125   -1.93126230737884    5.08625407411763
H         4.94893601451533   -2.35177848702713    2.98326377250728
H         5.68743892272293   -0.74062497479236    3.48207433902216
H         3.42176595516259    1.66754039875117    2.01673804857663
H         0.62231951338273    0.85962284809953    2.62727644266341
H         1.08783101942319    1.75380607468296    1.29690196123002
