32
 energy: -49.307011933700 gnorm: 0.145242747448 xtb: 6.4.1 (79825abcba525fcdf90b791dcacef51065a7a4e7)
C         3.48698022879807   -1.41670507606267   -0.55359613382626
C         2.87972283318203   -0.26190559794227    0.23380383101397
C         3.05478984881770   -0.40111923467049    1.77039835350301
C         2.20069792195193   -1.54405344424291    2.39794356531325
N         2.35184232471922   -1.57693110496554    3.87043333636374
C         1.71179961577293   -2.77266643400847    4.40005936842558
C         3.73325211469183   -1.22517342975025    4.31297570215129
C         4.87566543102008   -1.26449401889586    3.26019236829694
O         4.47724218901250   -0.54354252770270    2.05924875276188
C         3.65160481148481    0.20755852251008    4.72846236946634
C         2.96608311265751    1.02705547743382    3.88103146960903
O         2.70060301636783    2.15349710755583    4.58773545209239
N         3.15432478851764    1.93789475840959    5.90093421285343
N         3.82700506398211    0.78667828340099    5.94786317271501
C         2.54153605963046    0.95812435246655    2.46193401171139
N         1.10832035981781    1.30767000304579    2.42994318233059
H         3.30370747294851   -1.47916032371938   -1.63201684902089
H         3.01123121909015   -2.33514627721139   -0.20157463645475
H         4.55030264756421   -1.45924094129670   -0.29997385226909
H         1.80733625976943   -0.22943458055237    0.01129197848305
H         3.30982439030550    0.65894412314626   -0.17930569923673
H         2.52160012204382   -2.51305537059774    1.99281435979544
H         1.13569003557716   -1.34821369085300    2.22933481853867
H         0.63481455673156   -2.93984694670444    4.27948360751157
H         1.91177692392556   -2.75090252870858    5.47586321259251
H         2.12182976112299   -3.64793526926507    3.88582657646661
H         4.03764807842959   -1.88848432360253    5.13127545097860
H         5.17871093319107   -2.28396261737114    2.99653659690198
H         5.75626296184296   -0.76030681242032    3.67415203360348
H         2.97823723162095    1.80224543047277    1.92101101277816
H         0.62280246339777    0.77852531206378    3.16339290192277
H         0.69335774648929    1.36945973243794    1.50394271139235
