32
 energy: -49.317117026916 gnorm: 0.136736206935 xtb: 6.4.1 (79825abcba525fcdf90b791dcacef51065a7a4e7)
C         3.44744524360158   -1.33995650268297   -0.43567550790712
C         3.15928810883893   -0.05828856034909    0.33673295922549
C         2.96890533408439   -0.30885927237586    1.85729875925638
C         2.19777414333418   -1.59575898648616    2.28018223276570
N         2.18686199587701   -1.67968540400117    3.75835305401093
C         1.91816041437622   -3.04767026261311    4.17830337875923
C         3.42475274700807   -1.20110335518179    4.44132883590829
C         4.61370504013554   -1.35491857431105    3.45252128906009
O         4.34643357237986   -0.60916415501992    2.23055811031503
C         3.35586016064198    0.26584172709495    4.71581418086968
C         2.89458233234342    1.21410722199707    3.85113523363904
O         3.16660763375331    2.42728393921286    4.39241650766759
N         3.77886407173027    2.20290958309851    5.63806373067385
N         3.88610885471464    0.88379704578186    5.80670867737617
C         2.33086371817041    1.02466067521331    2.49276834039722
N         0.86052725488668    0.95536843267860    2.59583186137265
H         3.83971899701712   -1.11594843559015   -1.43388515094223
H         2.48935901352354   -1.86034972411802   -0.50675410585982
H         4.04636308139146   -1.98155841341338    0.21734251663675
H         2.23972920294337    0.39651544010580   -0.04816130789147
H         3.91038694764138    0.72982147066821    0.20129234428956
H         2.72704366233379   -2.50203183571581    1.95673837460135
H         1.16091629936885   -1.68716077011750    1.93726032388838
H         1.02950031108841   -3.43253678875414    3.66396337655137
H         1.81304933702802   -3.14809569667496    5.26305445446941
H         2.81289348059121   -3.63381527938326    3.94476027688744
H         3.66876002627429   -1.79949345254240    5.32712929404468
H         4.73082736747766   -2.40773462484148    3.17229299914261
H         5.53112390746627   -0.93073619303736    3.87611458671606
H         2.62325021089090    1.98755441379839    2.06475924994407
H         0.60375167960845    0.11609179432755    3.12813934029591
H         0.43373415860008    0.86063569077133    1.67802895384127
