32
 energy: -49.311844663312 gnorm: 0.156726322739 xtb: 6.4.1 (79825abcba525fcdf90b791dcacef51065a7a4e7)
C         3.53127691334171    0.32475169891353   -0.45525125191868
C         3.34371680870685   -0.92401120350027    0.39782230772759
C         3.07069595020329   -0.69609516601310    1.90933330872890
C         2.09211964596505   -1.74725168161312    2.51517405137915
N         2.06540360847777   -1.71835866427039    3.99524267711571
C         1.45439642850763   -2.90742773964834    4.57206703799319
C         3.35070667587069   -1.32350572459477    4.64328387758427
C         4.52274765462532   -1.57939390003227    3.65543357097095
O         4.41921149852154   -0.75111201451780    2.46211588894388
C         3.32331712543849    0.17007959465122    4.66493972914162
C         2.93028888385796    1.04165356791233    3.69254990761439
O         3.22913869442897    2.28812204536285    4.13502708385070
N         3.85077277391320    2.15816961109733    5.38942823063406
N         3.88582409993367    0.85991489825655    5.69488944389321
C         2.58093858572044    0.79287063478892    2.27308145363573
N         1.13188676241426    0.98249419423341    2.06910955752117
H         3.65203584018887    0.03941752544760   -1.50619487191882
H         4.41814237522126    0.92045123549026   -0.22633597164583
H         2.62333941231090    0.93499268763336   -0.46185088661516
H         4.18829208231419   -1.60603139692635    0.24909466539736
H         2.49553795970738   -1.38084393814676   -0.12706580999073
H         2.32550942743011   -2.74168026439996    2.11179627858305
H         1.07882758340766   -1.47590961386123    2.19794133844559
H         0.49119934746991   -2.91681627912049    4.04809385114893
H         1.20235131197390   -2.62700625301169    5.59951803576517
H         2.13920523269112   -3.75393279798283    4.45751701803226
H         3.39648744557663   -1.83821429233333    5.61035777472730
H         4.47877217040883   -2.59609203300445    3.24915997664598
H         5.51614249206759   -1.38413851711994    4.07503026421560
H         3.09498866853695    1.49750687657501    1.61347076011096
H         0.64460124820430    0.39684071641433    2.75702892559665
H         0.93174628769854    0.86808931671222    1.07898626671875
