32
 energy: -49.308990703722 gnorm: 0.152514773295 xtb: 6.4.1 (79825abcba525fcdf90b791dcacef51065a7a4e7)
C         3.69950940533155   -1.40958250526392   -0.55758999674771
C         2.96654433726302   -0.34868445368710    0.25455507379113
C         3.10577987389871   -0.43341831213112    1.79876531492178
C         2.37752982913326   -1.69139823797753    2.36154680244371
N         2.40817360250245   -1.66591407081549    3.84160194029151
C         1.71914666373361   -2.83785527966264    4.36288598796747
C         3.67296719807726   -1.16256829430376    4.45381955035143
C         4.78006244622239   -1.24951448611498    3.36671905275070
O         4.50656562956614   -0.41578673269999    2.20444747346149
C         3.36977958420558    0.24695180619454    4.84541452549197
C         2.80907500122874    1.04848788715908    3.89525419345322
O         2.59858742217171    2.25697734007281    4.47320675810057
N         3.16580631847128    2.22205037292735    5.75924005257503
N         3.56073694650046    0.96771163090085    5.98432795777832
C         2.58441474572909    0.95055046211841    2.43280237385832
N         1.12065117066904    1.11398859499319    2.34337636198719
H         3.48877834153184   -2.45255900834591   -0.29629852544374
H         4.77711473350877   -1.23722393408568   -0.61097325603506
H         3.48781839199594   -1.34892186460159   -1.62917542410619
H         1.87677394127859   -0.39913860560577    0.15240948417767
H         3.19341480132032    0.63005050476477   -0.18614745301132
H         2.87110678191696   -2.56119005164666    1.90776643452848
H         1.31623843124042   -1.64993758960237    2.09142553339673
H         1.58391666094165   -2.65277528765659    5.43519326770205
H         2.30863219669016   -3.72483921705667    4.11072571748391
H         0.68182683329706   -2.92205034069797    4.02298250497275
H         3.89394580692253   -1.73728539194801    5.36107994717747
H         4.93799557483451   -2.25288111633693    2.95564765401961
H         5.69418379032703   -0.85246870979732    3.82252183054731
H         3.00373504555698    1.82673029778014    1.93048237970043
H         0.66505347078779    0.59992327043241    3.10615929667280
H         0.78911862984934    0.72547766763510    1.46438019925896
