32
 energy: -49.312817089056 gnorm: 0.146148806745 xtb: 6.4.1 (79825abcba525fcdf90b791dcacef51065a7a4e7)
C         3.71292352489225   -1.45864928050002   -0.38626387876635
C         3.13063969160945   -0.22292603812506    0.28920313910224
C         3.03231541835532   -0.33452192306214    1.83485197744069
C         2.32017055656861   -1.63466641379720    2.31657662378409
N         2.29805072604887   -1.63848826368135    3.79699812249073
C         1.99850056479241   -2.98297197224042    4.26877630254300
C         3.55829653909420   -1.12093759531086    4.40674562868900
C         4.73373164594765   -1.13346087060395    3.39027992386375
O         4.43814978054716   -0.31498658338326    2.22258608144590
C         3.36094665794306    0.32905366380072    4.70773511693142
C         2.77723799025317    1.17374685878356    3.81027649035371
O         2.79216581888722    2.38867095023208    4.41237079404681
N         3.33173014189682    2.25580995572523    5.70390364278375
N         3.72704886267832    0.98892081304625    5.84070810373818
C         2.21192074373919    0.89657862584594    2.46773283007576
N         0.74847599639191    0.72581051210396    2.54823465275909
H         3.04303966894882   -2.30660295500436   -0.56712566575601
H         4.58024506460692   -1.88486043922344    0.12352812624936
H         4.19124158973171   -1.29571571672358   -1.35654868713537
H         2.10980746424001   -0.02688967346093   -0.05727942166562
H         3.72216430335853    0.64573007049044   -0.02567182697801
H         2.91272092940940   -2.51580147330230    2.03629516302874
H         1.29568285853495   -1.65289079950082    1.92783924635957
H         2.36663813990407   -3.17594940327786    5.28347778450772
H         2.36283110189857   -3.72186055570982    3.54827271132244
H         0.90862140511776   -3.06345939810432    4.20289145054284
H         3.82812415444306   -1.62070033356580    5.34465979848045
H         5.05315450415144   -2.11375188210185    3.01924658263483
H         5.67880254005543   -0.83831841192253    3.86012169375918
H         2.37558734457663    1.85594395179245    1.96905716808292
H         0.48714382065227    0.14210532534150    3.35114434346527
H         0.42372975395623    0.50884821884628    1.60964205740890
