32
 energy: -49.318659697724 gnorm: 0.147324760960 xtb: 6.4.1 (79825abcba525fcdf90b791dcacef51065a7a4e7)
C         3.57506756761363   -1.37673847028900   -0.51315946688930
C         2.97724294445090   -0.23436031633327    0.29918280477963
C         3.06970756638009   -0.39257436100154    1.84111998092270
C         2.40935853736962   -1.69226959332562    2.39276849955752
N         2.38342670530721   -1.68947493842164    3.87313042549449
C         1.95911208392302   -2.92286198788011    4.52016587495952
C         3.69341017427080   -1.16999953124915    4.36502353687288
C         4.81385216613672   -1.31534668315930    3.29802260987336
O         4.48573501828508   -0.43140169080590    2.18817663271332
C         3.35407742293892    0.23327204329572    4.74933908639654
C         2.85221771831833    1.10925700105595    3.83258308592494
O         2.63373858193422    2.31173051608546    4.42003968343955
N         2.94585044457684    2.13871535494148    5.77999951475650
N         3.40306005200090    0.89530679117701    5.93778090187309
C         2.53380814631341    1.02310165163987    2.38689228169033
N         1.06892552394527    1.18008692689175    2.30450687828333
H         3.04323216983211   -2.30908146708345   -0.29323118255313
H         4.61715661904980   -1.44284417638086   -0.19149047374013
H         3.46837286495355   -1.13589839368974   -1.57495060794998
H         1.91890340173943   -0.04605849491756    0.08695958453458
H         3.61191430298526    0.62945476024040    0.06545896445428
H         2.92031404074091   -2.60182323794313    2.04968065435489
H         1.33885729277243   -1.67128849124992    2.15907896312532
H         1.55992677359457   -2.77482945563444    5.53067174625627
H         2.71896655646914   -3.70632079169560    4.60160286783923
H         1.15092708418211   -3.28457681852465    3.87622875971087
H         4.02183263297289   -1.75298156024412    5.23365657767016
H         4.96684635289054   -2.36199630385239    3.01204268838072
H         5.79521711848487   -1.04451583262327    3.70372303091063
H         3.07647331642259    1.80392351850625    1.84682031933230
H         0.56213219283382    0.40116644986002    2.74052710114173
H         0.87188373424825    1.08249985171776    1.31196462784576
