32
 energy: -49.317419867588 gnorm: 0.145153566906 xtb: 6.4.1 (79825abcba525fcdf90b791dcacef51065a7a4e7)
C         3.52672702719004   -1.41590134838999   -0.41628150305759
C         2.95299233481712   -0.22947952656648    0.34893340038904
C         2.99356470359463   -0.31050464491512    1.89907547268719
C         2.17572416750330   -1.56800455800661    2.32265007801941
N         2.21967212839217   -1.70676791532215    3.79606957162291
C         1.92392324261205   -3.09404985885569    4.12458561524109
C         3.47793549781487   -1.22606920823984    4.43916540516124
C         4.59558635509417   -1.35281079589707    3.36687805016035
O         4.39282959000007   -0.37715746003367    2.30491384800376
C         3.37912550944100    0.23909673231223    4.71401375668890
C         2.85215561937043    1.21105848417854    3.91573595708269
O         3.14767562293264    2.43270638735028    4.42468118817573
N         3.81800740441592    2.18778648993681    5.63608877751383
N         3.95400800695685    0.86793218016082    5.77569136705636
C         2.31223023969247    0.99280620878125    2.55203665003211
N         0.84173253143600    1.11457488082843    2.56306741714937
H         3.54642255568434   -1.12235392710258   -1.47170691538102
H         2.99692113258805   -2.36678955676117   -0.32190024550574
H         4.55659325970986   -1.54568490651596   -0.07085437741108
H         1.89484842471449   -0.07363850569165    0.11097563372517
H         3.56524576366705    0.65780883894712    0.14527646690903
H         2.62686095451564   -2.50024562277995    1.95730801359429
H         1.17413970350458   -1.39516437976864    1.91279796942195
H         1.15657830464800   -3.51408721416343    3.46342373991991
H         1.51971270500201   -3.09804724794840    5.14164823162352
H         2.74643767766062   -3.80888215856494    4.01903749958578
H         3.76287887345703   -1.69317536587604    5.38936108264978
H         4.75565781909157   -2.36503203163187    2.97899602821090
H         5.52486336112881   -1.13075382054691    3.90367810738469
H         2.74319912704843    1.78863007691179    1.93821568111650
H         0.32319567538514    0.45137782318788    3.15039986649802
H         0.59753830305804    1.06005133894286    1.57773235720850
