32
 energy: -49.318517024411 gnorm: 0.143158784042 xtb: 6.4.1 (79825abcba525fcdf90b791dcacef51065a7a4e7)
C         3.70573119487203   -1.27955191187559   -0.44185878383275
C         2.92065549740460   -0.22321935353602    0.32634676460532
C         2.97484170787353   -0.28401883251101    1.87699789223386
C         2.22929291106361   -1.57985393047090    2.31807954821005
N         2.08843822938977   -1.63414531128336    3.79095568531605
C         1.76840513125082   -2.97269234397852    4.26615253921577
C         3.42449540258203   -1.23100726753577    4.32039045165717
C         4.61001741723272   -1.28028371638241    3.31683854550838
O         4.39708996145586   -0.39504581554528    2.18026762276077
C         3.34548244151361    0.20769680708519    4.71523703771987
C         2.94929441290648    1.16424710631093    3.82771185358499
O         3.26725291589703    2.37579599747800    4.34716600102162
N         3.84726860411341    2.12116188532125    5.60238792322896
N         3.85539826035160    0.80599386842971    5.82659195313765
C         2.29706489839156    1.03460306225556    2.50233704503952
N         0.84603456585796    0.90632429859128    2.73764186409331
H         3.94721086032995   -0.87693151807453   -1.43184120462475
H         3.08084707893161   -2.17471864312323   -0.48643299815136
H         4.61013886439155   -1.49406370994321    0.13504639427631
H         1.90957335350542   -0.21997833591360   -0.09588687621444
H         3.32211350241099    0.78444262347460    0.16184793794004
H         2.90062630242162   -2.40032593171436    2.03135701370810
H         1.21959239252323   -1.67906624018817    1.90372981928126
H         0.99673198304313   -3.51875876955197    3.71052976167785
H         1.41044651552779   -2.92402012282303    5.29926199514458
H         2.70796569881328   -3.53445058896463    4.24856743087414
H         3.66997295097878   -1.88130692773338    5.16839036151773
H         4.90269682993625   -2.30377975803204    3.05710448600893
H         5.51394921101821   -0.93085721622099    3.82852965276937
H         2.39354818310576    1.92559797539323    1.87570714584314
H         0.65895908746290    0.15209977068370    3.40832685032580
H         0.33265521752778    0.71425960811490    1.88146336833830
