32
 energy: -49.310920925828 gnorm: 0.153057858657 xtb: 6.4.1 (79825abcba525fcdf90b791dcacef51065a7a4e7)
C         3.60953201179070   -1.44783517648733   -0.42283473453836
C         3.09942661376834   -0.26515711603387    0.39165109648570
C         3.08752768499674   -0.41392021540125    1.93725116934701
C         2.25265203998672   -1.67529995890779    2.31340060327231
N         2.22585071967186   -1.84388419396443    3.78411904015603
C         2.14569950531559   -3.25896391595827    4.11738549853717
C         3.27828244339747   -1.08543133888602    4.52236487124994
C         4.54677139956408   -1.23710320695525    3.63752678426379
O         4.45321871212550   -0.40089370157060    2.44892287174943
C         3.13137233441759    0.38619590115103    4.73389955087996
C         2.92473972363014    1.30521222583510    3.74781319161059
O         3.04029499847912    2.53775680181328    4.30122240588733
N         3.50812380509348    2.34462099480670    5.61296688037557
N         3.65157268917478    1.03330647360015    5.81265936931061
C         2.39649419720057    0.96172872082181    2.40549988471751
N         0.92834226594386    1.04527610201577    2.52741196348993
H         2.94769246850896   -2.32003855126634   -0.46419282761507
H         4.59202488765303   -1.74074454370621   -0.04507509567128
H         3.68498816498043   -1.18691513842149   -1.48255886341946
H         2.11065868366479    0.02181955465841    0.01673613991079
H         3.73129939532472    0.58228583351601    0.09807268951037
H         2.74771737605790   -2.57680214582556    1.92833341044460
H         1.22944291617890   -1.65359731016477    1.92148736419574
H         1.79448264732922   -3.30423260499481    5.15516298971259
H         3.07240950085702   -3.79691723319314    3.89460015368219
H         1.32620540252092   -3.67368385841854    3.52148919667176
H         3.45657361312487   -1.65511463595289    5.44210717365481
H         4.67185543386963   -2.20983440470117    3.14883959626009
H         5.44552289680358   -0.88887434611756    4.15906466103443
H         2.65071974446551    1.70711246214698    1.64680466702055
H         0.66552244793907    0.15810838776013    2.97185477980138
H         0.52280669723172    1.08080934112338    1.59587178242924
