32
 energy: -49.312270367890 gnorm: 0.144365706037 xtb: 6.4.1 (79825abcba525fcdf90b791dcacef51065a7a4e7)
C         3.63420251417249   -1.55941291891175   -0.39233605821924
C         3.02514817313344   -0.31872860858156    0.24959644441428
C         3.06753329218294   -0.37848067373296    1.80065570100617
C         2.29222510032680   -1.60244741200164    2.37544892263560
N         2.34388448982151   -1.64077783801484    3.85464254946937
C         2.15846715467770   -3.00228364460290    4.33616486636516
C         3.64948882437453   -1.15439066480951    4.39008168243112
C         4.82412349190630   -1.14064191167646    3.37270692024698
O         4.48183591937901   -0.42004554204227    2.15436469103972
C         3.37049224562370    0.28211304323910    4.69113697735662
C         2.84626199249455    1.18497840559159    3.81382793778431
O         2.57234533474682    2.32661552029228    4.49236702518762
N         2.94829423896002    2.11968647895585    5.83127762536783
N         3.46656300815417    0.89245725364652    5.90412239202783
C         2.45947505426431    0.98715608765846    2.39605098935507
N         0.99778561401727    1.17607685752937    2.32473663304006
H         3.06564359664629   -2.48245461133770   -0.23354187424556
H         4.68870843445264   -1.70809865675620   -0.14799959112997
H         3.59127718396050   -1.39371458140722   -1.47284038748342
H         1.95646732682754   -0.26332956961505    0.01415844430625
H         3.54332739626735    0.54886485919988   -0.17746667818172
H         2.73005138688817   -2.53367809135088    1.99179518044024
H         1.25972488216140   -1.46136018618648    2.03624159375046
H         3.07459026418264   -3.53618233773896    4.61554864163537
H         1.57589236997057   -3.74121871206734    3.77723724333526
H         1.57790038754961   -3.04335230503765    5.26347884449516
H         3.87953326962852   -1.69815078023483    5.31401740084733
H         5.28086916202921   -2.13000047059207    3.25772780052698
H         5.65096148580035   -0.57193468837314    3.81308219363808
H         2.80786944497835    1.86794754704128    1.84954047087517
H         0.38990172720245    0.78085972321513    3.05133887213742
H         0.71911565362241    0.85655982915400    1.40075571331631
