32
 energy: -49.311920768664 gnorm: 0.144510315539 xtb: 6.4.1 (79825abcba525fcdf90b791dcacef51065a7a4e7)
C         3.52532409881642   -1.53057234715410   -0.46354702349816
C         2.93768822350332   -0.34651487068374    0.29474978422476
C         3.14661796946997   -0.32272822336040    1.83323415948204
C         2.38198422748608   -1.54926421831630    2.41678305341033
N         2.41485312347814   -1.66876295262671    3.89217838585377
C         2.02832060913784   -3.01235823267299    4.29873185957907
C         3.69543083888573   -1.16888483649373    4.47365306861165
C         4.83681963640866   -1.27812962402117    3.42469920350323
O         4.54001105603782   -0.53328156489936    2.20901679238456
C         3.30437382448768    0.24799762345321    4.74111291734775
C         2.83527874956623    1.17686454021144    3.85974442882822
O         2.56488843133543    2.32441262248461    4.52967233220599
N         3.01336731074292    2.12617703826681    5.84740073720693
N         3.46910327142257    0.87552680509936    5.93783953320280
C         2.52406078371780    1.04172127408764    2.41623864928721
N         1.10651194256591    1.32890043685201    2.12401235681000
H         3.10183436979867   -2.41730136862486    0.02106508417393
H         4.61068825262662   -1.65062818182964   -0.42664524033155
H         3.26020769297969   -1.52917236957206   -1.52491381033958
H         1.84566863895192   -0.41035833341702    0.23153509013762
H         3.12550296591651    0.67237938390341   -0.06607034312245
H         2.91726031537712   -2.43908476232771    2.05933159806556
H         1.32222256075618   -1.54462025725898    2.13766379925826
H         1.41360686959930   -2.91594178992717    5.20162473726285
H         2.83679946108778   -3.74734929600307    4.36172856180047
H         1.34919865182963   -3.47230880564502    3.57354605056243
H         4.02578210444628   -1.66715700164161    5.39280790063845
H         5.04157088996152   -2.32248781482360    3.16381598049784
H         5.80403825485878   -0.86445122315203    3.73190869514729
H         3.04180871917831    1.91142640740801    2.00223858804139
H         0.53881891162608    0.60442481733636    2.57846798862773
H         0.82282240419541    1.46383783607010    1.15716130794428
