32
 energy: -49.305817988465 gnorm: 0.154830409128 xtb: 6.4.1 (79825abcba525fcdf90b791dcacef51065a7a4e7)
C         3.73543210782235   -1.75047180368591   -0.11861335648932
C         3.16484254051465   -0.42357111276981    0.36727160192688
C         3.03799806497348   -0.25524848058533    1.90568949662936
C         2.23723742488427   -1.47069953854183    2.46340426200339
N         2.39700654427733   -1.65508666735811    3.92375590540025
C         2.15403352378053   -3.05867648423424    4.22515452906255
C         3.71902785354392   -1.09803003889475    4.33584546308567
C         4.87760737453793   -1.16704712037876    3.30243500375908
O         4.46557477383850   -0.31059243804690    2.19903470358545
C         3.36881273169485    0.33216394951919    4.58865136014046
C         2.64817509234600    1.20267934111211    3.82540911326112
O         2.40380281022105    2.28757503775232    4.60133723510402
N         2.95447337549852    2.02631843498803    5.86835961816913
N         3.55525034063579    0.83541764910563    5.83967494471232
C         2.34807565977299    1.12039773093799    2.37558175702346
N         0.90938158382194    1.23732241987233    2.06931261159753
H         2.93534116227520   -2.49886775685259   -0.10316084080253
H         4.61995495468344   -2.17026536975490    0.36634353685920
H         4.00674902807611   -1.78491827848082   -1.17785303523538
H         2.14987371395780   -0.36167581662206   -0.04087802044340
H         3.69398538604170    0.47630208461579    0.02985919997441
H         2.57262751360575   -2.39342107501371    1.97129544386995
H         1.22715237888022   -1.29470071306100    2.07639452647552
H         1.17068838528710   -3.30433848617310    3.80674422586419
H         2.02502478486104   -3.00223776020201    5.31050697040912
H         3.03000355623878   -3.63701787625480    3.91394180698341
H         3.98273322767760   -1.50585218746746    5.31889851403567
H         5.16358073615511   -2.17253864604761    2.97399445461666
H         5.82726942770245   -0.73303855504318    3.63529819516879
H         2.87775362408731    1.94252707771560    1.88630618139529
H         0.42084597919680    0.60162283107495    2.71031902455268
H         0.72741522405313    1.00859619282332    1.09562817950238
