32
 energy: -49.312613389640 gnorm: 0.157166050370 xtb: 6.4.1 (79825abcba525fcdf90b791dcacef51065a7a4e7)
C         3.55535495828732   -1.61911625906730   -0.35774172152723
C         3.00040063210052   -0.37424447326202    0.32390482630366
C         3.03507535289527   -0.37193342262760    1.87630424273384
C         2.28263397098036   -1.63261086588505    2.39985838962009
N         2.46459799136250   -1.73768051825833    3.86546445984586
C         2.28516049529177   -3.11868981208671    4.29038433603428
C         3.71105366882563   -1.14881531553294    4.43770237970282
C         4.84384167923576   -1.17049211073204    3.37406312701079
O         4.44630874205373   -0.34336224634645    2.24331052527816
C         3.22146560538140    0.24132182940056    4.68232148549145
C         2.81361738887991    1.17803188068021    3.77905604357200
O         2.49258064960895    2.30781286714222    4.45678110475776
N         2.93811315812695    2.13601291572918    5.77921233561878
N         3.35300655596167    0.87212414315611    5.88143310424258
C         2.48147467874531    1.06660109280274    2.33819044830842
N         1.05462021932550    1.40424599640967    2.17267591320792
H         3.08048190130840   -2.53586958953288    0.00905483267390
H         4.59920711546286   -1.56655629634474   -0.03930708015731
H         3.48016196054912   -1.54743312916715   -1.44677600422378
H         1.94546008996038   -0.20547598434484    0.08060150569540
H         3.50535766265601    0.55642940751356    0.03671922115121
H         2.77503701391674   -2.50037946225105    1.94095803723162
H         1.20715081851631   -1.78223415036643    2.25162626447724
H         3.20738594793643   -3.71162487018855    4.27269564315792
H         1.44409701822181   -3.65015205834377    3.83433761802782
H         2.07710116938396   -3.09875398460189    5.36507940924192
H         4.00535512362356   -1.62149695325347    5.38227182325625
H         5.10494077394978   -2.20678606175813    3.13201092024234
H         5.74422307634976   -0.68579889967359    3.76827776357524
H         3.09232966623891    1.77687130538581    1.77408195238876
H         0.44408463266264    1.10789297356523    2.94280018703246
H         0.64446260918703    1.22908084154377    1.25912421205819
