32
 energy: -49.316647489174 gnorm: 0.138596615143 xtb: 6.4.1 (79825abcba525fcdf90b791dcacef51065a7a4e7)
C         3.38233883877522   -1.50602084976924   -0.40349297792562
C         2.89567112282923   -0.22174231484813    0.25688969522450
C         3.09304609084487   -0.32860837884067    1.79337087344863
C         2.28279598910014   -1.54050278653177    2.34508760684413
N         2.40354504720155   -1.62569194128160    3.81828622763462
C         1.70356505205275   -2.83834370122528    4.21759199563979
C         3.73971563214248   -1.22242815848240    4.34733887833504
C         4.87068918564789   -1.24180032991069    3.28172610598247
O         4.51206901484560   -0.53273650079199    2.06131725630035
C         3.58860572012927    0.21335610895285    4.73166378315083
C         2.97417287393437    1.08445725846031    3.88118776636097
O         2.75367635231201    2.22101646269818    4.58715901805684
N         3.30986939663702    2.03815777319547    5.86545898382089
N         3.80756216891098    0.80249207397935    5.93916540041178
C         2.48541243342741    0.99146440577116    2.48430020381366
N         1.02307298619465    1.18605446343685    2.51609451451101
H         3.39895294373912   -1.30021600024063   -1.47952696467268
H         2.70732033607550   -2.33206629782308   -0.16729510475437
H         4.33716657486047   -1.84318152123716    0.01052973366608
H         1.84019638143770   -0.01479316953077    0.04778689658635
H         3.51972573984992    0.60333106624518   -0.10837842840935
H         2.59958279591071   -2.47704472876242    1.86695797855337
H         1.23663394799114   -1.33352801904697    2.09263889662414
H         0.62430620707005   -2.64457587720239    4.21134424491366
H         1.95169688331465   -3.03507742820908    5.26522978477831
H         1.97746214430600   -3.74623709320594    3.67044888010890
H         3.95837142929083   -1.70802643252042    5.30579424369283
H         5.16247116593638   -2.26045202104067    3.00265769937375
H         5.79967416432949   -0.83270425293528    3.69482011610640
H         2.76224210947471    1.82935370522259    1.83842649487104
H         0.54761461872886    0.44838202491104    3.04849374322855
H         0.69959446819552    1.24731683362515    1.55427468214714
