32
 energy: -49.318221727452 gnorm: 0.148410055576 xtb: 6.4.1 (79825abcba525fcdf90b791dcacef51065a7a4e7)
C         3.61763163587656   -1.32720411315382   -0.58848539271675
C         2.93806401817530   -0.28367326899828    0.28989567306411
C         3.01539984117065   -0.33225961426112    1.83999571385485
C         2.26676088597517   -1.60141209547180    2.34830300427504
N         2.23835435586537   -1.55091441122245    3.82776059117841
C         1.71951853330440   -2.83128353773361    4.28754932228303
C         3.57939182815387   -1.23847821919809    4.40384421517080
C         4.67103331278983   -1.43036096201978    3.31457523728431
O         4.40229033414529   -0.44436228758744    2.27709679173549
C         3.46413795236388    0.22037329077606    4.70465157772788
C         3.07955163022748    1.19905652416090    3.83636197490975
O         3.01555643687271    2.37988060662134    4.49994318027610
N         3.50108128711067    2.12737753592517    5.79506735129092
N         3.79938977080409    0.82944723675246    5.87500126523935
C         2.43073103250148    1.00520003294690    2.51716496607680
N         0.96026456754959    0.98648707954664    2.63837141868105
H         3.28134139469637   -1.33298121789863   -1.63124917041818
H         3.47748209703710   -2.37524814115375   -0.31325401769390
H         4.64502788919197   -0.96663561246425   -0.69448265840221
H         1.89326550885737   -0.27549985870614   -0.04011662669138
H         3.31773179816796    0.70546846755877    0.00518170936787
H         2.75816686109583   -2.51782589316644    1.99506293848456
H         1.25568063936651   -1.63635937521702    1.92697257013003
H         0.68879513635863   -2.94558492358970    3.93127817180709
H         1.77951207576142   -2.77268752419516    5.37878063892161
H         2.24439642843857   -3.74705185471965    3.99681369891425
H         3.72754120564133   -1.81359554281364    5.32555161882730
H         4.63702235527282   -2.43909286133672    2.88799538068210
H         5.67151238857380   -1.20893842989268    3.70320491775920
H         2.74602675224205    1.82679575654840    1.86800007263123
H         0.72986386400886    0.18265048122748    3.23371372651553
H         0.52070083121374    0.98796350632753    1.72170880052158
