32
 energy: -49.321973184641 gnorm: 0.138621759274 xtb: 6.4.1 (79825abcba525fcdf90b791dcacef51065a7a4e7)
C         3.81053964325439   -1.39014704173142   -0.52685934461682
C         3.10415084435016   -0.26970948553880    0.22676962924259
C         3.03666741321828   -0.40267829579112    1.77238177638809
C         2.38090843432301   -1.70359298882366    2.32662517447304
N         2.32346284359103   -1.62805396307592    3.80417231873583
C         1.92896931317231   -2.86565599847540    4.46193933745437
C         3.60233397823086   -1.15082522657649    4.40800307857933
C         4.76055086012016   -1.14305931650218    3.37191409174950
O         4.44038275755416   -0.38889305978810    2.16796087521109
C         3.28172072858012    0.26371399890795    4.76619606639844
C         2.79595739488334    1.13842075240826    3.83960205292571
O         2.62683625842025    2.34778630177908    4.42919000073972
N         3.15714724690250    2.24040529609455    5.72691045569217
N         3.56218067036890    0.97964928642693    5.88952244441775
C         2.37281325301041    0.90324506772276    2.43800627341738
N         0.89852115929748    0.87574863822934    2.49295713189911
H         3.39567266284428   -2.39347564842880   -0.37955728543996
H         4.87255136723222   -1.39397714062518   -0.27013590994071
H         3.67070330916625   -1.24172136696947   -1.60166339454105
H         2.09854456374207   -0.06260600294735   -0.15590909976163
H         3.77226704463451    0.59952632624029    0.18601548363929
H         2.83557806099307   -2.63853353572137    1.97274054829698
H         1.33095769048793   -1.86436029427171    2.05684521733331
H         2.69923340174077   -3.64521169115941    4.42491479523453
H         1.03782307184626   -3.23095512280901    3.94209952435064
H         1.68797990286402   -2.63325338115726    5.50432542228931
H         3.91144695047592   -1.77198054196039    5.25704251517920
H         5.11189265048918   -2.12997909431979    3.05064245069950
H         5.62025795455395   -0.68414466454826    3.87323276240511
H         2.69513836828060    1.76958342832583    1.85370295871567
H         0.62060591198713    0.07449102768827    3.07124735652266
H         0.49107276336742    0.56136120784776    1.61623872464732
