32
 energy: -49.311312383560 gnorm: 0.142845354409 xtb: 6.4.1 (79825abcba525fcdf90b791dcacef51065a7a4e7)
C         3.69262267197212   -1.47470057712834   -0.38205766670489
C         2.88986808654375   -0.36393918888161    0.28436284540206
C         2.96997883127959   -0.43428400844091    1.83348695001325
C         2.28455185376821   -1.72323067524409    2.37973867158738
N         2.30960843235622   -1.70113269508028    3.85995336533168
C         1.92793196411995   -2.96313232938194    4.47770847618102
C         3.62180675620717   -1.17893055367513    4.34297582279764
C         4.76268592218641   -1.20758330864352    3.28818637369007
O         4.40069010624719   -0.42238069121003    2.11635294595170
C         3.37001383408210    0.24642497421612    4.71308150621366
C         2.83752874016665    1.18144177687032    3.87531211123880
O         2.73602870023952    2.35840145114223    4.54107826716731
N         3.17169400016081    2.09449997064561    5.85157075251270
N         3.47442026969165    0.79907664658975    5.95274221944882
C         2.48154935198936    0.96875962119148    2.45162878299312
N         1.09276939309320    1.35980381645234    2.14229489547165
H         3.37944574365026   -2.47826410200949   -0.07341343021704
H         4.71315037209864   -1.26390038732840   -0.05361133980176
H         3.64121103515648   -1.30016884676916   -1.46079936282462
H         1.91103292824824   -0.15537669887752   -0.16168902019048
H         3.47218807575915    0.55142689004679    0.12120824488941
H         2.82346215258870   -2.62380971288003    2.05631060926997
H         1.22691777531575   -1.82930876945949    2.11294005395842
H         2.22233192396661   -3.12124845185590    5.52208035058446
H         2.32738226874539   -3.87366891392579    4.02034529255242
H         0.83355369802636   -2.93168778569763    4.47595599950552
H         4.03070171384418   -1.66618284563638    5.23608434854137
H         5.12352406680435   -2.21166524672622    3.03862183346220
H         5.56320153421620   -0.58449789200672    3.70286537665393
H         3.13967784122694    1.64895230926635    1.90385985350058
H         0.43836493054868    0.62214995396595    2.42741206445801
H         1.06113573493842    1.31515416978695    1.12716212652487
