32
 energy: -49.317971902879 gnorm: 0.149816139919 xtb: 6.4.1 (79825abcba525fcdf90b791dcacef51065a7a4e7)
C         4.14106547134998   -1.36681412648904   -0.20975192315988
C         3.08191136517379   -0.38684466276733    0.28032410904329
C         2.99318415621466   -0.38360376439488    1.83057202672897
C         2.23223356233726   -1.62797159778962    2.38019689980386
N         2.23792522575496   -1.66806999134161    3.86023453929356
C         1.90209809965200   -2.95767436124300    4.44681965020536
C         3.53852735205042   -1.14442669366585    4.37219353996376
C         4.69066805628196   -1.22974257046602    3.33281871210860
O         4.39456023682904   -0.32545029132487    2.23038806285823
C         3.34470508612437    0.32785933768468    4.53597093795437
C         2.72733867798935    1.24042692126633    3.73239550162890
O         2.67488895113543    2.38837792282122    4.45228329593649
N         3.27497970777450    2.18524704367322    5.70745966846444
N         3.66970683881924    0.91089668037388    5.72236234876171
C         2.28680360049130    0.96833979074801    2.34288957683525
N         0.81833467252465    0.90055509748151    2.47062784265578
H         3.96508710473740   -2.44581868710472   -0.13721522007534
H         5.06927192284423   -1.06717209290851    0.28262794104685
H         4.33248112950732   -1.28041194630688   -1.28338260292387
H         2.08450273350930   -0.61908416740361   -0.10931635104729
H         3.34730176693746    0.60731319672811   -0.10024011619001
H         2.62093259114860   -2.53260161343070    1.89375037370774
H         1.21383125234273   -1.48744294477269    2.00054923416271
H         0.92996165211441   -3.33771058351777    4.11080200949446
H         1.87883235444920   -2.84037268562371    5.53471556608433
H         2.62825807299175   -3.69450424718719    4.08844968527830
H         3.83140535685328   -1.69415841097281    5.27456276685765
H         4.92568038466721   -2.22418355736978    2.93718821129930
H         5.58687761272835   -0.89598067179393    3.86801099397539
H         2.61739575269332    1.84775705295901    1.78326461531262
H         0.56811437758171    0.08325003226120    3.03902247663801
H         0.44264501342459    0.78724636302525    1.53280737515392
