32
 energy: -49.315282420892 gnorm: 0.143750108473 xtb: 6.4.1 (79825abcba525fcdf90b791dcacef51065a7a4e7)
C         4.09402151210745   -1.07948185279612   -0.37665684443869
C         2.83645328132065   -0.57516200690966    0.32084277843071
C         2.96198194518038   -0.43011637590857    1.86173730636137
C         2.15695672207264   -1.62017830978843    2.46611433526999
N         2.33343126041656   -1.84665418869007    3.91860085385506
C         2.12975000892782   -3.19580228144317    4.42678855389737
C         3.55388695250544   -1.17753447812567    4.45770836497118
C         4.71722883321154   -1.19618198996088    3.42751665694284
O         4.37776586263182   -0.47429672811413    2.20914715121964
C         3.23351079513074    0.25899135219435    4.71416286115057
C         2.78589077107090    1.14504447779848    3.77917594878647
O         2.72128011125895    2.37559617036464    4.34516970083219
N         3.23882871656030    2.25942137707581    5.64727786104425
N         3.43708768892162    0.95804961775376    5.86436164137054
C         2.41920965094257    1.00405887560377    2.34931676204668
N         0.95978250688288    1.19162406575522    2.23884268746686
H         4.12743737088866   -2.16984907331489   -0.27436555588659
H         5.05178969931127   -0.65201527936173   -0.07048218682487
H         4.15723949736442   -0.83900931931045   -1.44200400557878
H         2.01029913174156   -1.26780387372034    0.12515062155005
H         2.69881581803029    0.41150459366338   -0.13867435331257
H         2.54925471637100   -2.42137683623630    1.82560217019803
H         1.14265956216120   -1.34188381900920    2.15825501522670
H         1.14653025349120   -3.61176023108688    4.17650361416244
H         2.17973131904691   -3.13074932041923    5.51815855506155
H         2.82559896210816   -3.95434224640295    4.05387171451002
H         3.83795631193583   -1.63462343148515    5.41302349592573
H         4.98006466742286   -2.23771537348646    3.21120045827502
H         5.60994607170030   -0.69782337495586    3.82212275154733
H         2.89956009673902    1.82194970427350    1.80510721465341
H         0.36190323139263    0.69513077935597    2.90944316939890
H         0.60588800974708    0.98280052461858    1.30898236066825
