32
 energy: -49.314624303109 gnorm: 0.159882023036 xtb: 6.4.1 (79825abcba525fcdf90b791dcacef51065a7a4e7)
C         3.37884651442070   -1.44174339184861   -0.54383794123624
C         3.17837296204038   -0.22277704019514    0.34849241680790
C         3.08570501877085   -0.40393060522799    1.88789089139025
C         2.44517213155763   -1.75143192124595    2.33904766881776
N         2.33712727522476   -1.68672235407148    3.81427330515702
C         1.96316187160664   -3.02081786120872    4.26180033162191
C         3.56294024075450   -1.09913701103547    4.43071166290354
C         4.82928435628186   -1.06116540168908    3.53074623766512
O         4.48862546137526   -0.38615485181650    2.28612180738566
C         3.18718670573114    0.30617905048960    4.77117064085210
C         2.78374428847893    1.20448538418597    3.82780735141562
O         2.76743034480872    2.40934387386037    4.44976456904473
N         3.31649820498996    2.21991218870562    5.73018595279658
N         3.58827208563705    0.92678055789872    5.91444118730937
C         2.35692268943261    0.92177245836107    2.43614432901433
N         0.89244529887565    0.81276211593991    2.29214600337487
H         2.44676966880969   -2.01048434764310   -0.45302339628872
H         4.24255438484507   -1.97821842721387   -0.14384576005664
H         3.57690481453395   -1.23771145387622   -1.60021476930362
H         2.27512281088743    0.31790766848466    0.04455481733262
H         4.02061278815393    0.45224811465421    0.15206389669327
H         3.11596932270484   -2.45389223491761    1.82655057895408
H         1.46586590349069   -1.81803230181373    1.85165910114238
H         2.14557829238732   -2.92102058020249    5.33843834598001
H         2.57074012235147   -3.83758423115638    3.85985522685154
H         0.89867791645911   -3.16917249471851    4.05318482019829
H         3.85745299025981   -1.60666887752199    5.35695480621236
H         5.17566063967757   -2.07140097632023    3.28556320395576
H         5.67726171026061   -0.51681180704351    3.96159762687760
H         2.61783647827747    1.74506372747302    1.76535265827462
H         0.55657409492930    0.29526391502341    3.11254613143670
H         0.68753211630823    0.39568428277602    1.38796378507666
