32
 energy: -49.318995307678 gnorm: 0.140168558734 xtb: 6.4.1 (79825abcba525fcdf90b791dcacef51065a7a4e7)
C         3.86889183718168   -1.31802171355375   -0.44975640608380
C         3.04058239004800   -0.26583666190122    0.27765830369978
C         3.05439162342650   -0.43323402834679    1.82133542175348
C         2.39515602949931   -1.76179088419411    2.30084529672880
N         2.41635177474874   -1.67035467528066    3.77845886312652
C         1.62342743983942   -2.68616576982924    4.45620527150723
C         3.69534839424363   -1.23191220815310    4.41076105527875
C         4.82634118680407   -1.24320054884770    3.34505241259437
O         4.44935167541448   -0.36998731957368    2.24225811414630
C         3.42303213380938    0.21169874674674    4.68251008107001
C         2.81591440199250    1.06731166362675    3.81131036519438
O         2.70996578203617    2.27492502808035    4.41894987176295
N         3.25459768720287    2.10785081390926    5.70436851760011
N         3.70517477570609    0.86005524910880    5.84574377558464
C         2.31911534815874    0.86252815219015    2.42925259698623
N         0.85368137841430    0.99702705258787    2.53753981716936
H         3.38036287368417   -2.29871864930460   -0.44242333291961
H         4.84751640920479   -1.37318414190029    0.03298736429429
H         4.04464674575394   -1.09618282383310   -1.50648997929484
H         2.01583166226192   -0.41133606634619   -0.08191744982356
H         3.49116331039592    0.69264117833107   -0.00853762070163
H         2.96535581079472   -2.56423721254871    1.81399344727621
H         1.33048883780907   -1.82386541760140    2.04854699075803
H         1.36750669668928   -2.30180132290860    5.45076708631768
H         2.06173583533388   -3.67465325132857    4.62531099539195
H         0.72890075723112   -2.89115331346926    3.85916445357931
H         3.95891727372188   -1.66606103726751    5.38251151385681
H         5.10117355082728   -2.25815792410217    3.03683842557871
H         5.73159771676415   -0.78319601117107    3.75727297671053
H         2.64107495661732    1.63825835149017    1.72894505403501
H         0.41589401238786    0.15974653753243    2.93875519508110
H         0.42823431210163    1.32434957690796    1.67420699048432
