32
 energy: -49.316256897963 gnorm: 0.150443092370 xtb: 6.4.1 (79825abcba525fcdf90b791dcacef51065a7a4e7)
C         3.00181945896212   -1.47189518113537   -0.37282858937733
C         3.03752275322930   -0.12884365896066    0.34637929621276
C         3.13500648228417   -0.31945224094310    1.88433799181905
C         2.37908051655939   -1.58400647625756    2.39332046727074
N         2.44788148326486   -1.67464647528646    3.86953268974693
C         2.04420167634634   -3.04046229949983    4.17207382534615
C         3.73516801725763   -1.17960998735315    4.44023618892948
C         4.83179593726839   -1.31923473004741    3.34802779838549
O         4.55181063951846   -0.48192339100179    2.18988460374714
C         3.43046998408850    0.26125791424553    4.69138370556944
C         2.93233875102011    1.20818025555244    3.84589111214219
O         2.77306113643468    2.37245974842481    4.52254821606717
N         3.19773031085381    2.11751801875405    5.83841280273734
N         3.45593910033935    0.81221342787823    5.93592483164302
C         2.53730716276062    1.07405317579571    2.42294021174375
N         1.07418752827512    1.16311749786523    2.25364371149701
H         2.90362284015724   -1.26596929189780   -1.44447813932283
H         2.08994669218762   -1.99431381166335   -0.07390162638267
H         3.81475933233639   -2.15899109031685   -0.12021009525760
H         2.17561974300847    0.46833643391775    0.02845163533295
H         3.96138850733522    0.41829823846663    0.12117079624870
H         2.75102605916715   -2.48132587080295    1.88092701362889
H         1.33717351460199   -1.54555127682734    2.05571875061190
H         0.96966079616410   -3.05364311578710    4.39018577835811
H         2.51582192529457   -3.35531094483862    5.10816312411996
H         2.32809713030837   -3.75167201027975    3.38961632559984
H         4.02658443149353   -1.75786531229964    5.32508079037372
H         4.98542829515725   -2.34436516468171    2.99282101773977
H         5.81733998900211   -1.02425657862487    3.72579778660007
H         3.05000406853183    1.82690860231850    1.81779841927386
H         0.57514022901074    0.79763585568017    3.07281718917107
H         0.72838374497836    0.62261426858975    1.46512305987954
