32
 energy: -49.319664450996 gnorm: 0.139785274795 xtb: 6.4.1 (79825abcba525fcdf90b791dcacef51065a7a4e7)
C         3.01635003103785   -1.36592993758542   -0.63750172435218
C         3.08395676797347   -0.20107106161967    0.34273049519532
C         3.13929092307846   -0.35566763924599    1.88681263611153
C         2.31542020643164   -1.59642969876955    2.34652034543070
N         2.37345785086890   -1.71895509890470    3.82089168723648
C         2.02017828518178   -3.04756518504913    4.30040203436473
C         3.62679510547246   -1.20168662953527    4.44495039541098
C         4.81268538364721   -1.27913699426075    3.44361492790371
O         4.53559144506680   -0.41629854245898    2.30365595741287
C         3.35784604194595    0.22612443337968    4.79285590933687
C         2.89177241312193    1.10822331038273    3.86316169957999
O         2.92466000775603    2.34434314868518    4.41967503932489
N         3.35491324440730    2.18610125105061    5.74884036375434
N         3.68634832803881    0.90590093660843    5.92558421423471
C         2.44962728401564    0.98323188871916    2.45329853811277
N         0.98214930525667    1.13100072922383    2.40873875030670
H         3.03778178361157   -0.94328959618683   -1.64814341295228
H         2.06210266605610   -1.88821706562576   -0.53543010952412
H         3.79282457490578   -2.11878461040815   -0.47292575665660
H         2.29160483984388    0.47647217617647    0.00554740477258
H         4.00587644856586    0.34029791919758    0.09657042603493
H         2.69243685876248   -2.51508234345195    1.87746982448061
H         1.27814068857079   -1.54103584513593    1.99722586097322
H         1.04214423097699   -3.31575711958788    3.88338029032090
H         2.04147135670244   -3.07368314817686    5.39433208670480
H         2.74370793531224   -3.77204038954570    3.91272156867278
H         3.87208136718640   -1.87270590141261    5.27670787273167
H         4.94442585100932   -2.29358269185897    3.05091715301086
H         5.76999413313104   -0.98345208977158    3.88763040458762
H         2.97342327013316    1.85329841414018    2.04775197881441
H         0.70449883706163    0.46539123861683    3.13918002392365
H         0.51496364933874    0.82236987379455    1.56022630366850
