32
 energy: -49.315465681047 gnorm: 0.145519612916 xtb: 6.4.1 (79825abcba525fcdf90b791dcacef51065a7a4e7)
C         3.85682744065141    0.04519721639666   -0.39738606258074
C         2.81343969731033   -0.81735958770680    0.30237094618804
C         2.97750638557740   -0.67240125409646    1.83964803196323
C         2.10477076836202   -1.71690256225381    2.59920986664525
N         2.20412727213960   -1.67046228462280    4.07573392138356
C         1.75590838279757   -2.87047540979448    4.76783919919246
C         3.57840711656941   -1.26949583912616    4.49816858846954
C         4.51114086623001   -1.72708896972272    3.34247689265131
O         4.38234606170446   -0.94588854274259    2.12021853644551
C         3.35813851610531    0.19874156717189    4.66483269038617
C         2.97483230116830    1.08223757041454    3.69934550170844
O         3.02691390271016    2.31380552057399    4.26441966835904
N         3.32314903256637    2.15735497077599    5.62992571868141
N         3.46427957232778    0.84999178050279    5.85550077550316
C         2.69194316453798    0.85385804054844    2.26176218420799
N         1.31180290515183    1.29121665470975    1.97673039682921
H         3.87348768129631   -0.22061322517395   -1.46018804331924
H         4.82714664553813   -0.07347913972314    0.09065805356632
H         3.54563993452572    1.08632018192511   -0.27084185388452
H         2.93880798699734   -1.86260094466938   -0.00149111729753
H         1.85966257820719   -0.48709408026571   -0.12756503375629
H         2.33383984242542   -2.72112479438037    2.21824044933303
H         1.05789822140659   -1.50814442547117    2.35121423913487
H         0.72632029856214   -3.13615971534647    4.49998683911992
H         1.67961452790643   -2.65457787171184    5.83806627994404
H         2.46384248512029   -3.68799663944886    4.59712316148325
H         3.84599160101563   -1.75380805511465    5.44479044240011
H         4.48578813075603   -2.81693926852407    3.23179388684198
H         5.56596014272101   -1.57245387397173    3.59637378537804
H         3.45913218830430    1.38964048327315    1.69589632376638
H         0.78846350503008    0.51109579134881    2.39049064096484
H         1.12055027599577    1.44595186049892    0.99033886126872
