32
 energy: -49.312236271379 gnorm: 0.152265503637 xtb: 6.4.1 (79825abcba525fcdf90b791dcacef51065a7a4e7)
C         3.51380873954905    0.27013034099843   -0.56951707627501
C         3.14530408278910   -0.90071648157742    0.33361310138807
C         3.14807247697544   -0.65903404429532    1.86747540373077
C         2.20212103855489   -1.76741289050505    2.42088017293978
N         2.10308409650724   -1.60160312265411    3.88882107782402
C         1.41252712304197   -2.70099819407151    4.54791358026813
C         3.40638491963508   -1.31117779832368    4.55585203890610
C         4.51446086899910   -1.78054917840731    3.57255898523383
O         4.48333017964061   -0.94866969710702    2.37765936072209
C         3.47471760036418    0.16852844086192    4.75031628789977
C         3.09184298701931    0.99071037959595    3.73194590173668
O         3.04345978176334    2.26986492255998    4.17938713400198
N         3.47619945101301    2.23849039423767    5.51676921104802
N         3.77175186098858    0.97076636908646    5.80921580786872
C         2.68397794930660    0.81458111460520    2.31721841257574
N         1.23037622792529    1.02848974606819    2.18084411254646
H         3.79379071754736   -0.06013696313875   -1.57600324166755
H         4.44666998115572    0.72814992132238   -0.23220644533493
H         2.76409849210083    1.06508547098530   -0.51689567288541
H         3.96364567943773   -1.61372293283605    0.18355414623945
H         2.15954512991216   -1.32981360045539    0.11505876853109
H         2.65122188074630   -2.74492313930429    2.19984900374331
H         1.21392232868203   -1.66173023532563    1.95901612057584
H         0.44690471389204   -3.04110883042460    4.15512512045091
H         1.36190597518207   -2.38123908426150    5.59338482083188
H         2.05672804990501   -3.58211112874174    4.63335818958111
H         3.61374886724915   -1.92227137182459    5.44231554253376
H         4.45325231347965   -2.81684050022257    3.22181552684703
H         5.47126336188110   -1.46437862180810    4.00335420887861
H         3.20529487193011    1.57464632554374    1.72868164462014
H         0.69155143474905    0.51621464705502    2.88859568398309
H         0.92401905823630    0.77761458517983    1.24452378520089
