32
 energy: -49.314613307932 gnorm: 0.139326848165 xtb: 6.4.1 (79825abcba525fcdf90b791dcacef51065a7a4e7)
C         4.24409512261196   -0.52700466709337   -0.45657585577590
C         2.91065560928041   -0.37158908378377    0.26460868601449
C         2.94710549971936   -0.51976651123196    1.80988098450042
C         2.23722427779737   -1.77818662706191    2.39471607447155
N         2.13725032261719   -1.66668180595242    3.86771423330454
C         1.52228073115241   -2.77530800729008    4.58374616430420
C         3.44283753932705   -1.23694121661442    4.44963798816510
C         4.55007403031176   -1.46797204320619    3.38396489315131
O         4.35085719906840   -0.70617019305119    2.15891456939194
C         3.37778830471144    0.22273251163416    4.76130684500035
C         2.86207194666985    1.06369031387736    3.81977565459525
O         3.11368499845803    2.33672202369439    4.21330083753319
N         3.64519352601158    2.27158853628012    5.51333742006496
N         3.83348276701328    0.98131143776674    5.79570706872222
C         2.34365023526248    0.82718444494048    2.45078581491074
N         0.86810640688871    0.82388249017044    2.45929028575030
H         4.12237475753379   -0.47104677993200   -1.54401949530959
H         4.70494043822460   -1.48267964239498   -0.19562101256149
H         5.01689742997384    0.22922840481143   -0.29021402178535
H         2.23794736207453   -1.14487031074267   -0.12279112299321
H         2.49736001292074    0.59805651783083   -0.03966947753106
H         2.78264867403756   -2.67677097015314    2.07670501414319
H         1.22279829651165   -1.82061815945056    1.98220739661608
H         0.66357846433010   -3.12568551655049    3.99872421884434
H         1.30893464219646   -2.49272205394207    5.61933639512890
H         2.10593141905601   -3.70143142803938    4.56634213465337
H         3.74033170229604   -1.82268202374950    5.32750907426018
H         4.63739366178504   -2.53542168416280    3.15246173043734
H         5.47774417409365   -1.06234636070949    3.80338743141702
H         2.58913824971186    1.67017148829367    1.79890049328642
H         0.50455711430960    0.33915385777037    3.28786755376379
H         0.66167723838338    0.15807539505426    1.71930600658069
