32
 energy: -49.318152894278 gnorm: 0.147493123961 xtb: 6.4.1 (79825abcba525fcdf90b791dcacef51065a7a4e7)
C         3.65044787867215   -1.45550887919205   -0.40597336946399
C         3.13196190294607   -0.17082740554293    0.22891866556946
C         3.10879001326538   -0.36103454634830    1.76983914839814
C         2.37823560561885   -1.62817980806458    2.30855777882212
N         2.31819612071920   -1.70584665456177    3.78589146033987
C         1.78629887302003   -3.00281698928985    4.17945802675507
C         3.51737629759680   -1.16104386583826    4.48805029401562
C         4.69294569043314   -1.11388730501833    3.47275728363411
O         4.47847869725703   -0.32226784879849    2.26937860452379
C         3.30454938296352    0.29124450520542    4.76658118791580
C         2.91716401074616    1.16106590011692    3.79036518678899
O         2.95013598123002    2.39976733554732    4.34110335848905
N         3.29248183912607    2.27139739878319    5.69873337937917
N         3.57865467456243    0.98477961092282    5.90542208931803
C         2.37600414883877    0.90875926721802    2.43304552937270
N         0.91539677548900    0.76405872125151    2.58470526635413
H         3.07324171103613   -2.30442129382417   -0.02300919819295
H         4.68960389556884   -1.62219148643391   -0.11243942525449
H         3.49391859862593   -1.38782420425230   -1.48657759784630
H         2.07754102507215   -0.06620682405605   -0.05006162760212
H         3.83751024875227    0.64707010682404    0.03693887559758
H         2.93270232453362   -2.53112766019850    2.01989800530217
H         1.37466531073369   -1.73178133022858    1.88061233908822
H         1.63722286691878   -3.01820936535637    5.26570112834750
H         2.44955065634798   -3.86063459023596    4.03091667544987
H         0.84113895364340   -3.15255672028483    3.64756860528309
H         3.73246418609914   -1.77597139179893    5.37001063622716
H         4.97570139741741   -2.12274927927499    3.15195532984402
H         5.54826957330003   -0.57742687061958    3.89896217832175
H         2.57330491423652    1.77999053317476    1.80227260407102
H         0.68574070321946   -0.00987391024345    3.21870573474208
H         0.54446541567073    0.84687352167786    1.64181584823389
