32
 energy: -49.312002552247 gnorm: 0.151569886580 xtb: 6.4.1 (79825abcba525fcdf90b791dcacef51065a7a4e7)
C         3.45387507113151   -1.59221072411307   -0.50390782002314
C         3.10625014457530   -0.33998902701368    0.29196893457248
C         3.09056247756613   -0.37159564759298    1.84435629996711
C         2.34131501693372   -1.62636144399687    2.38636702841877
N         2.28578158367964   -1.70972625460525    3.86356641726755
C         1.98452134526372   -3.05060784020161    4.34442005787371
C         3.55870300039428   -1.14761445298481    4.40354012053606
C         4.78600867691671   -1.22065399448719    3.45307022009058
O         4.49471044753074   -0.52293934379663    2.20843480924610
C         3.29376768178402    0.29763288539637    4.67388375688757
C         2.85303645951769    1.26545674064080    3.82022848070023
O         2.83164237849949    2.41409451416643    4.54061342377396
N         3.17883846160862    2.11580197025303    5.87001751413820
N         3.42132718814973    0.80525279017492    5.93051968958878
C         2.51251474511084    1.02459963432212    2.39725200035535
N         1.06971363829722    1.29399596903255    2.24538568752268
H         2.70180360315129   -2.38377579891902   -0.41283620344044
H         4.37911932149895   -1.94990848747371   -0.04590576547955
H         3.66221580019182   -1.19854585282714   -1.50311262278874
H         2.13102848210722    0.02438582039535   -0.04972176153549
H         3.83625813516906    0.46828418000550    0.16008335387370
H         2.83545132929461   -2.53503178839798    2.01728690935395
H         1.28742700209924   -1.74131852863815    2.10864625793205
H         1.77457477628548   -3.06348744430518    5.42058975276978
H         2.76831005827791   -3.77058341390770    4.08921635934736
H         0.99254480415262   -3.35844879107845    3.99819453946322
H         3.86940151202070   -1.58575813836664    5.35944245147427
H         5.13303527113888   -2.23677395153383    3.23457550710251
H         5.63598108944796   -0.59587229850349    3.75007877596322
H         2.91491186240787    1.76962363965488    1.70525361042564
H         0.38461596965409    0.61983118019480    2.60568172612631
H         0.74072877153754    1.41505375508959    1.29113059557586
