32
 energy: -49.315385673989 gnorm: 0.141383616950 xtb: 6.4.1 (79825abcba525fcdf90b791dcacef51065a7a4e7)
C         3.99076224836097   -1.23925195279979   -0.47853681401975
C         3.03219612381482   -0.31123922730433    0.25784993651880
C         3.09686891511303   -0.43949865571459    1.80398012580184
C         2.44127962505872   -1.76493485325583    2.29693669996403
N         2.29248386619476   -1.67670562178655    3.76738803100960
C         1.88565882938739   -2.94050298433593    4.36509280349116
C         3.47410094863896   -1.06338517899060    4.44228750984343
C         4.69664352588950   -1.28989250981174    3.51003695173542
O         4.46013701973796   -0.48402927451051    2.32031983559115
C         3.20450938013268    0.37950389443095    4.72051001486765
C         2.79145131269565    1.23903733791163    3.74570765228071
O         2.85766428706383    2.48851312918292    4.26839972180763
N         3.25465078384860    2.31865873655952    5.60645428239656
N         3.54065063771570    1.04079048734042    5.86190930735015
C         2.31753734859138    0.83603809719636    2.39966663306979
N         0.85231839128273    0.74896383907491    2.55087603741519
H         3.56003315755427   -2.13412889553348   -0.94129863937732
H         4.72375974429735   -1.54222495149798    0.27293675708722
H         4.50048268040049   -0.63171897303589   -1.23211288017523
H         2.00002787954687   -0.46362964776357   -0.07679125478297
H         3.27858663855469    0.72719195645112    0.00375657774835
H         3.01375632852109   -2.62199101177044    1.91772990946567
H         1.44293251869369   -1.87026078794887    1.85735346816584
H         0.80419519634896   -3.11718071218631    4.32501728165723
H         2.14512890610087   -2.94804827726270    5.42831284157000
H         2.44015936627935   -3.76073163661584    3.89774953551653
H         3.77297596202136   -1.55879321161403    5.37368287261901
H         4.72369414366404   -2.35227846713792    3.24306970946284
H         5.61094265420778   -0.88555604636354    3.95902300652020
H         2.39987097750103    1.68813145911345    1.71922261464920
H         0.55486555978562    0.28522781852790    3.41698280596164
H         0.31344919060042    0.36604825360186    1.77855198088851
