32
 energy: -49.311986283100 gnorm: 0.148793274139 xtb: 6.4.1 (79825abcba525fcdf90b791dcacef51065a7a4e7)
C         4.08929682673356   -1.13730885364375   -0.37047038311036
C         2.89986756565834   -0.48362961813134    0.32255456349611
C         2.98889261666185   -0.40374841466155    1.87072934831417
C         2.16850910404571   -1.57832022756931    2.48468094900865
N         2.30415232597318   -1.84402631573102    3.93490606109063
C         2.30368571266397   -3.25679107106821    4.28709480031953
C         3.47172949984996   -1.14639728634232    4.54968039715926
C         4.60057410759040   -1.27693892862777    3.48964465845741
O         4.38229094148758   -0.47162180923991    2.29608087826455
C         3.21881004093681    0.30883841878641    4.77403960723164
C         2.66703985373128    1.11107553907592    3.81925186541974
O         2.69844854633716    2.36543282695759    4.33343299752620
N         3.37043569970834    2.33930293579251    5.56817560191317
N         3.51329195770015    1.04940828100289    5.87763370428658
C         2.37634364732579    0.99808218756142    2.36957689740820
N         0.92957941306380    1.16313118242284    2.13094558930506
H         4.15326443486576   -2.16321750171630    0.00887167197976
H         4.98940354201590   -0.57353250500307   -0.11404373792529
H         3.87388950863557   -1.09145286530290   -1.44205101224450
H         1.94697216340801   -0.97697517231555    0.10079033730060
H         2.73878691168071    0.51297979473194   -0.10690294125870
H         2.46041306276691   -2.50520072008812    1.97305876267816
H         1.11028768876661   -1.47008340827944    2.22109767609571
H         1.28458247443345   -3.60469426550782    4.08026971264928
H         2.43126058948773   -3.38257070577071    5.36678116013112
H         3.09939570993800   -3.86316842512171    3.84233900125781
H         3.87752884596488   -1.60260837926417    5.46042242703747
H         4.48277442596309   -2.32436254435769    3.19015479523900
H         5.63135352352072   -1.07365735741019    3.80139736010952
H         2.87522451889614    1.85205448408180    1.90299872665197
H         0.36796653190246    0.53893467675290    2.72140296860823
H         0.72809715969887    1.19720775082467    1.13508791615470
