32
 energy: -49.312221816854 gnorm: 0.142976299560 xtb: 6.4.1 (79825abcba525fcdf90b791dcacef51065a7a4e7)
C         3.16407042748593   -1.74814840325871   -0.18206760070743
C         2.68198131882417   -0.44769134487948    0.44937805869597
C         2.92114255914028   -0.42380363418044    1.98345201666061
C         1.91197023394093   -1.24842353338830    2.83852970327792
N         2.63108108108423   -1.89000896460908    3.96254011556317
C         2.88820894774655   -3.32279834247117    3.93186070353683
C         3.78078760175116   -1.05640321497224    4.42204699048252
C         4.89227859151062   -1.02898873675178    3.33630151531370
O         4.21596641497664   -1.09189001505030    2.04811559422857
C         3.25703681857086    0.29566897633698    4.78204997701412
C         2.89581634873238    1.24963561355385    3.87699651205285
O         2.36001699159767    2.32641476697870    4.50329246340068
N         2.39898537525361    1.99176669834985    5.86833126721081
N         2.88612166288578    0.75755407627426    6.00767934400622
C         2.92677104696047    1.13063106723642    2.39925871745048
N         1.80231731719862    1.87291956656161    1.79765718570111
H         2.42740248228804   -2.55233988442225   -0.07681930825803
H         4.09264093635268   -2.15382033791228    0.22656130921483
H         3.31218710969943   -1.56641708185564   -1.25062892517561
H         1.63450692613172   -0.41568184682054    0.12945362901570
H         3.30025503707861    0.32789681780430   -0.01946270217057
H         1.43561316098663   -2.03230348105756    2.23463501757194
H         1.12273360155674   -0.59802620176450    3.23237327565256
H         3.06557958654393   -3.76964859837355    4.91738044385353
H         3.71381309882162   -3.57762824123659    3.26010330291473
H         1.95296938229930   -3.83801128229236    3.68991401756215
H         4.15820132374705   -1.39287598672174    5.39497950274104
H         5.50219382533559   -1.93881069664218    3.30639211756624
H         5.49797612349847   -0.12112431993154    3.43596116007368
H         3.90335127169271    1.48252676390533    2.05530164058432
H         0.86966871236175    1.48237370019732    1.97460555439832
H         1.87068364385681    1.88993520655110    0.78349480774598
