32
 energy: -49.313217520012 gnorm: 0.145297254347 xtb: 6.4.1 (79825abcba525fcdf90b791dcacef51065a7a4e7)
C         3.93349867637473   -1.10966474161173   -0.46665195664564
C         2.81115323879172   -0.37823450776323    0.25975882227687
C         3.01664233918422   -0.44142577044513    1.79759259622351
C         2.16022841148066   -1.56844620437122    2.45025233872013
N         2.36278399537631   -1.70059253793175    3.91095773970240
C         1.79368104216240   -2.88414637103591    4.53965761004246
C         3.69570630127569   -1.23466607145895    4.39479745097175
C         4.81056888981847   -1.38030006018448    3.32200708489863
O         4.42274259840701   -0.62776958802185    2.13707402836614
C         3.35591225461434    0.18603786581155    4.70809697991340
C         2.77689261353109    1.09007411654994    3.86719920181244
O         2.65420049766082    2.28402028167818    4.49824605117267
N         3.24343021373948    2.10842017931625    5.76268733032255
N         3.57667476013049    0.82290846510301    5.89078164403139
C         2.54027688748718    0.96897076318005    2.40837218989601
N         1.13266715152502    1.27666361592079    2.09013838448013
H         4.05606157265465   -2.11470150102458   -0.04789158126940
H         4.85759734554028   -0.61519217143026   -0.15789797230082
H         3.73507797327389   -1.19557868924871   -1.53904933904833
H         1.84721635195564   -0.83761668696172    0.01405057002391
H         2.71481471690122    0.67333138214409   -0.03779640655012
H         2.54348116222342   -2.48179739472969    1.97593223157438
H         1.06543420215862   -1.59968005424369    2.41185969508925
H         2.01468154403539   -2.95663778448106    5.61123981842386
H         2.18824099130944   -3.79276100228677    4.07429710606249
H         0.70376318424360   -2.78104821258296    4.54992648099564
H         4.02720561755503   -1.72983610212726    5.31521450777406
H         5.01035667953781   -2.43111626617414    3.08423134905535
H         5.75443254239888   -0.94727935871242    3.67219821134957
H         3.09039457174998    1.76759059301780    1.90297838885088
H         0.48570722260445    0.69534808216243    2.63528544988945
H         0.94852013954329    1.12831108506194    1.10141687615433
