32
 energy: -49.315467565955 gnorm: 0.147135536663 xtb: 6.4.1 (79825abcba525fcdf90b791dcacef51065a7a4e7)
C         2.99483583182952   -1.51177059482483   -0.50231307209273
C         2.91408805227548   -0.21725163921590    0.29770102468344
C         3.06172529286316   -0.34482357249123    1.83818156049730
C         2.33165478382945   -1.58526286549091    2.43642233840861
N         2.40430231161240   -1.67518111771588    3.91249440246307
C         2.15304586619131   -3.03215662253329    4.37663776847800
C         3.72230025835162   -1.19686486760507    4.42431975818698
C         4.77169053880215   -1.41128671511567    3.29834892012512
O         4.46734026090591   -0.52743672335915    2.18167627452685
C         3.43003158453798    0.22806895286191    4.76514065126717
C         2.99060310804852    1.13683988467297    3.84824788022742
O         2.76903055976295    2.29749516753311    4.51350410934516
N         3.02127812188902    2.05357432953588    5.87501525289027
N         3.42670361596720    0.78920298425715    6.00538287312077
C         2.67670125447087    1.11332932527993    2.39919917449596
N         1.26373598115799    1.49842529511692    2.21880227558953
H         3.21359227056235   -1.18890420602228   -1.52621918083965
H         2.11008676150948   -2.15024733914992   -0.56025288050290
H         3.88933170694668   -2.04907787149437   -0.17373104549998
H         1.92640609625296    0.23603253734030    0.15771292143682
H         3.66461836502417    0.55891732344856    0.10308077306532
H         2.72428963557189   -2.42770664254882    1.85144457421657
H         1.26844904988696   -1.49545527513948    2.18631819430065
H         1.09025803020698   -3.30184970220131    4.36513483610993
H         2.46000307088632   -3.23950066916847    5.40649417700814
H         2.65987521765145   -3.78482711810901    3.76404756903174
H         4.06194474158392   -1.78884884991269    5.28248600090321
H         4.88207901651804   -2.46791513951977    3.02998737780992
H         5.77574879563206   -1.22630996143972    3.69668290699150
H         3.27448644869604    1.87453761408445    1.89021902604818
H         0.67944762598250    0.76697452440695    2.63982140916342
H         0.96663647826374    1.66318002090914    1.26063914864122
