32
 energy: -49.311076676570 gnorm: 0.153022492881 xtb: 6.4.1 (79825abcba525fcdf90b791dcacef51065a7a4e7)
C         3.22014679173232   -1.49232318820129   -0.43275905417737
C         2.89644193417443   -0.19436834606291    0.29720703047205
C         3.06796435963120   -0.27546414641057    1.83836087387026
C         2.26772336480831   -1.46515377522581    2.44978344515787
N         2.40882911608137   -1.78036191674913    3.88953505098205
C         2.14832519096645   -3.12534121850488    4.38259667366559
C         3.69504076954739   -1.20558961444536    4.38265431834831
C         4.71145519790226   -1.38938714354501    3.22156550935385
O         4.48090597967751   -0.40069392265669    2.17748194803689
C         3.38210067328249    0.22737482629738    4.66672772930541
C         2.87134812901931    1.21582902057326    3.87821994178530
O         2.85856269812474    2.34724725395393    4.62555537401730
N         3.31480838967076    2.02376586401051    5.91553152173998
N         3.55119304666410    0.71076657663732    5.92800623382467
C         2.52311045593493    1.11370664194180    2.44046793165135
N         1.08902944974401    1.40287225453798    2.24783423009813
H         3.32582110732194   -1.38621446180329   -1.51814132802604
H         2.40790274992245   -2.21454740916544   -0.32121405512421
H         4.13639273709611   -1.93991246184448   -0.03659578179612
H         1.87163080208656    0.16902482616557    0.16197979818541
H         3.70634268809750    0.45910389548368   -0.05013408559762
H         2.61101326817004   -2.36675741049510    1.92505917309696
H         1.19276351330776   -1.39225771581650    2.24935540710941
H         1.30594536894528   -3.39876257972096    3.73605073064976
H         1.87434213909207   -3.16531086914744    5.44144237290765
H         2.84757170623406   -3.94668089538273    4.19521721620732
H         4.11727253895245   -1.54202015373437    5.33700622037898
H         4.53467314526643   -2.38882368598932    2.80859834856510
H         5.76997679547985   -1.26287146570586    3.47562291373897
H         3.03605475090678    1.92576468720700    1.91769084483057
H         0.50882994559151    0.65835705303029    2.65123957746696
H         0.91025378374095    1.45489401673667    1.24842349507854
