32
 energy: -49.315302685177 gnorm: 0.148891800345 xtb: 6.4.1 (79825abcba525fcdf90b791dcacef51065a7a4e7)
C         3.57644197882850   -1.41409556951849   -0.36010632068525
C         2.87701563130007   -0.23986745430284    0.31392128591580
C         3.01368755545407   -0.34603175754811    1.85703553022415
C         2.21392377957148   -1.54299481046536    2.45473276049192
N         2.40933307735368   -1.66194308714722    3.91754451150047
C         1.90851192666992   -2.92776377973537    4.43408835088244
C         3.79371574570429   -1.24834480329736    4.29209934264941
C         4.74029685478184   -1.45168473900463    3.07651548653782
O         4.45278610931356   -0.43142024193098    2.07792866643020
C         3.51338294535115    0.18146798369110    4.62234954387251
C         2.89940811290213    1.13076496926526    3.85977200092437
O         2.72898550330737    2.25875379395969    4.59283289478033
N         3.27738943405195    1.99140361107632    5.85956720429921
N         3.78182526542041    0.75671531693051    5.82655571242491
C         2.43384335342638    1.03049812017394    2.45548381713614
N         1.00785618555091    1.40268610317031    2.38234343110624
H         3.52043200385088   -1.15944310590668   -1.42429418537570
H         3.18602963445128   -2.39477684375769   -0.07791323861892
H         4.63226195017639   -1.34782365152186   -0.08146613736626
H         1.80995579519717   -0.38090177066858    0.10880792878622
H         3.23451301813073    0.74461287073563   -0.01258316763927
H         2.40356001745369   -2.55479498918651    2.07214796717866
H         1.14182485646839   -1.36238198628048    2.31686751184373
H         1.17198985064054   -3.29341768495034    3.70868011110209
H         1.40943492740373   -2.83121159621565    5.40332430106657
H         2.75300217761046   -3.60198228514826    4.60993272343653
H         4.12481192421183   -1.78538844239608    5.18887811732232
H         4.65229068362210   -2.43195139363832    2.59485236166926
H         5.76745904263072   -1.19201854263014    3.35674871536514
H         2.92350329243321    1.79631129761726    1.84752878559397
H         0.43090146403488    0.87898145633221    3.05057012373987
H         0.67127493690303    1.30708712812322    1.42784737845576
