32
 energy: -49.315458766681 gnorm: 0.147033339244 xtb: 6.4.1 (79825abcba525fcdf90b791dcacef51065a7a4e7)
C         3.83553799374313   -1.25242082792343   -0.37153058668469
C         2.76459000263725   -0.40869984565097    0.30929787521122
C         3.04452040499531   -0.40136652215940    1.83662783787118
C         2.23738621518873   -1.58609781251921    2.44861704109116
N         2.26643353040784   -1.68606350024219    3.92554453157880
C         2.20697201835655   -3.09087058680417    4.30359581159131
C         3.56127519496809   -1.14585681150996    4.43488921952691
C         4.66861361162488   -1.37547933793808    3.36901767485237
O         4.45063385380002   -0.53454488608484    2.20021838926215
C         3.40693257449449    0.31505753476876    4.70677869339658
C         2.88424024152176    1.18419641457756    3.79516217303914
O         2.68484086416971    2.36012025483326    4.44031636452455
N         3.11052629120308    2.18831644905653    5.76926864690604
N         3.58557858417602    0.94830491336539    5.89848612683076
C         2.45082721142174    0.98776273264911    2.39074193197863
N         1.00379959804952    1.26245286000439    2.30147143971456
H         3.91331018304408   -2.23671525972696    0.10343968744298
H         4.80767196485545   -0.76125028380943   -0.28494228290288
H         3.72332609629717   -1.46192433245845   -1.43938118419693
H         1.86968360755329   -1.00158994618703    0.08974667833117
H         2.58159675673119    0.58251196407583   -0.12385759427238
H         2.70066016884769   -2.42042402300455    1.90515623132925
H         1.15313616173543   -1.54131127859223    2.29558141332171
H         2.38119219116029   -3.13334407565224    5.38536658032885
H         2.92162041958288   -3.73180654057523    3.77795594568690
H         1.22414880103740   -3.49475515973370    4.03979399844368
H         3.93090854554404   -1.63909425245465    5.34171926359529
H         4.74873917683642   -2.39802295879392    2.98346404841971
H         5.58872033837704   -0.96316709841183    3.79846101507481
H         2.86751573733860    1.80074818389983    1.78968343581630
H         0.47630669589811    0.58569117834337    2.86486746805253
H         0.64372894167604    1.26451445031132    1.35076976010062
