32
 energy: -49.317234182890 gnorm: 0.149916148844 xtb: 6.4.1 (79825abcba525fcdf90b791dcacef51065a7a4e7)
C         3.91703805292478    0.00651350694533   -0.56390683568419
C         2.95481484637162   -0.77535251937925    0.32217109817752
C         3.05537970267310   -0.64877018699535    1.86652056118306
C         2.20058233561072   -1.78770974622119    2.50033660297052
N         2.19776934668119   -1.68969959658705    3.97767806479014
C         1.41400616602980   -2.62635222279669    4.77035612624405
C         3.56802010373056   -1.32052878873198    4.44027507724214
C         4.69119945477407   -1.48263095242208    3.37857923315586
O         4.48445268266099   -0.73967650035811    2.14324439677837
C         3.39214302070862    0.12872488366958    4.75768227760703
C         2.87671466383313    0.94562745659797    3.79505141565179
O         2.93669694124640    2.20972481094819    4.28212528436719
N         3.43101757904379    2.09263134956386    5.59314589248834
N         3.72098032262505    0.82271712188727    5.88165917320595
C         2.55388584581358    0.80001213196680    2.35511841970401
N         1.11876013494955    1.07118154204316    2.14489433243516
H         3.85779960793449   -0.43389944952907   -1.56540972541594
H         4.89840480340390   -0.12278655873403   -0.10131490946574
H         3.62782728147647    1.05832906100401   -0.64654639644081
H         3.18727979202399   -1.83425092666424    0.16319602970196
H         1.95231215523321   -0.62078521864305   -0.09581018244063
H         2.62375380332863   -2.73283118716288    2.13462633009308
H         1.22274591309374   -1.65639974817305    2.02324380838138
H         0.37903669672868   -2.71169691339456    4.41830621961335
H         1.47285584645256   -2.37493141481555    5.83390809623298
H         1.77438878065669   -3.65825342878104    4.70742848612626
H         3.86052495164406   -1.96051022580766    5.28117780139223
H         4.76641382425071   -2.54293089474021    3.11254540102933
H         5.60086151106791   -1.08611934855955    3.84367368043424
H         3.15296555226976    1.52444724293205    1.79642058036209
H         0.58273477150445    0.28780395086828    2.53562004745700
H         0.98370599839837    1.15429787732216    1.14073255536142
