32
 energy: -49.316175243718 gnorm: 0.145908878313 xtb: 6.4.1 (79825abcba525fcdf90b791dcacef51065a7a4e7)
C         3.75331201457766   -1.47824102953196   -0.31563968976211
C         3.06285509154495   -0.24871376414885    0.26216134299919
C         3.11293190528126   -0.33473805247668    1.81175605199702
C         2.40551872497015   -1.62376615501548    2.32901591155077
N         2.34707270437253   -1.73371907640634    3.80436200817791
C         1.95848450981313   -3.03364877759213    4.33268327546885
C         3.54929258893392   -1.09186307980629    4.41309711579999
C         4.78405583109602   -1.09408970611620    3.46950726434532
O         4.51163685969904   -0.39710200733441    2.22019795597202
C         3.25568967362143    0.34859824931670    4.67933901868932
C         2.78251106726598    1.25878842093074    3.78083458510549
O         2.60334585663882    2.41377811887683    4.46835152240220
N         3.18694607405657    2.23117136168470    5.73441011402793
N         3.57836352552476    0.96109361738392    5.85143725078638
C         2.33898532237845    0.94723900420111    2.40059868505683
N         0.87656162293457    0.75609659189216    2.35483498706309
H         3.12911209166857   -2.37487123769779   -0.23251610712173
H         4.72547065649555   -1.50259994845710    0.18246141895125
H         3.95211177197073   -1.27406604332864   -1.37184959370969
H         2.02948642670004   -0.06131374093566   -0.05026350624289
H         3.61728473483033    0.62430576996160   -0.10397484893576
H         2.93985536520224   -2.40281079972863    1.76897446241018
H         1.34905324184343   -1.70019353519247    2.04783366738649
H         1.35535070619451   -3.56091808368683    3.58395011084404
H         1.34611509348061   -2.72017020225074    5.18389029148575
H         2.81963907707596   -3.67447488740503    4.54811383155507
H         3.72791917042230   -1.69104857814989    5.31383125764047
H         5.06125319924015   -2.12442066628622    3.22001398089804
H         5.62395912981144   -0.55796930229923    3.92574920860391
H         2.59464766077461    1.80885199449786    1.77761729327567
H         0.70791809988211    0.09727224660696    3.12371733974715
H         0.72782560454379    0.27408025263754    1.47221011381298
