32
 energy: -49.313200889082 gnorm: 0.145844832346 xtb: 6.4.1 (79825abcba525fcdf90b791dcacef51065a7a4e7)
C         3.71269144366567    0.18527052783048   -0.48024698305238
C         3.07572011695853   -0.93497582103346    0.33316418573017
C         3.07429799743612   -0.67646076584952    1.86428128087588
C         2.21068484456645   -1.81162094515980    2.49290541582510
N         2.23023019166941   -1.71772007800930    3.97038715609499
C         1.43817525301681   -2.75139882281865    4.62161568728684
C         3.54361008927193   -1.31186437536017    4.55192356998077
C         4.68545912085482   -1.63645088732888    3.54901209599842
O         4.42793952516938   -0.78453547693363    2.39631894774968
C         3.45957480548667    0.17872799571011    4.60749981830897
C         3.05447751332503    1.06369091525155    3.65230812939661
O         3.08547510607669    2.29773193371817    4.21352362168199
N         3.43177983840196    2.15575929479185    5.56879318924133
N         3.70153262931565    0.86308203001887    5.75910705385291
C         2.58225849215358    0.80044023878546    2.27153387738822
N         1.12634368247433    1.03030185346362    2.20233485135719
H         3.59768654349660   -0.09679398200708   -1.53271754730636
H         4.76161293978811    0.26525727993264   -0.18502450993569
H         3.15604712486863    1.11442131548353   -0.32657836858100
H         3.47964022723903   -1.92362552431759    0.08821693211671
H         2.05724605477175   -0.91338709277111   -0.07408948869266
H         2.51960015494808   -2.77706344999518    2.07033621946470
H         1.18835192862507   -1.71766245738337    2.10945903777630
H         0.40600924713425   -2.60768999010922    4.28049141991555
H         1.43103394376748   -2.63401070780547    5.70972759878550
H         1.85709007074784   -3.74732367998832    4.44469856072478
H         3.70885872305315   -1.68188063117477    5.57076289604483
H         4.52741152901364   -2.70007900498766    3.33833851518827
H         5.62554732675947   -1.32111044090202    4.01571748677635
H         3.06397324846857    1.44263766277825    1.52898465574742
H         0.58322695131038    0.16182378560848    2.26897028880312
H         0.89636824039611    1.53513783838754    1.35043066763491
