32
 energy: -49.314112402948 gnorm: 0.152272804101 xtb: 6.4.1 (79825abcba525fcdf90b791dcacef51065a7a4e7)
C         4.10445749284019   -0.35024653532393   -0.55754070620153
C         2.89515319482296   -0.65059297115178    0.31978318785720
C         2.96320974997382   -0.57325804822246    1.86915055854379
C         2.04551556322411   -1.68725811928510    2.45773007032674
N         2.11453736882489   -1.83393001421588    3.92942128506736
C         1.83162658175517   -3.15577307130659    4.47037765623961
C         3.35979543053732   -1.25257795152935    4.51185784209445
C         4.50590455876571   -1.51162782467027    3.49483568468560
O         4.35608116884500   -0.74370008544421    2.26657771282541
C         3.34122287090894    0.23046231281862    4.69147662323079
C         2.97969646542764    1.12809908477124    3.73064299414108
O         3.12202775915885    2.37020316721832    4.25571459838960
N         3.50162518433648    2.23323068808590    5.60255651115727
N         3.58266237793692    0.92260128376953    5.83853105610268
C         2.56988478086337    0.92023044169098    2.32079395535759
N         1.12444035960071    1.21663016764176    2.33306036977750
H         4.09118117442284   -0.98171378337168   -1.45283599568038
H         5.01878583106571   -0.38710948662914    0.03948132553444
H         4.06028279559533    0.68272913736964   -0.91502914350322
H         2.57945370412858   -1.67461475849112    0.09110859619396
H         2.04315609751166   -0.01581178274893    0.04635158995364
H         2.46925117420886   -2.58347122477909    1.98515961449820
H         0.98406812300680   -1.52456128346735    2.23890825672665
H         0.77598498230055   -3.40923212668606    4.31622196135090
H         1.83359309556119   -2.90989495042361    5.53684780915717
H         2.57431251358432   -3.94382137405713    4.30896794853807
H         3.50357667572968   -1.75795121643764    5.47423902142235
H         4.64275838060363   -2.56167032227438    3.21314622235338
H         5.45081795203120   -1.10484613560700    3.87257460519638
H         2.95498596476864    1.68995227218918    1.64620417225771
H         0.64292124140708    0.54523475209602    2.94218906047289
H         0.68133942521925    1.18071833145848    1.41880618166968
