32
 energy: -49.312153234948 gnorm: 0.155007797569 xtb: 6.4.1 (79825abcba525fcdf90b791dcacef51065a7a4e7)
C         3.80200346545517   -1.35726666606170   -0.44129115907343
C         2.93221342157504   -0.35257894437779    0.30462434838201
C         2.95375755350486   -0.42989606473409    1.85533693838385
C         2.19530389160744   -1.65106352619212    2.45790036449306
N         2.33748324682476   -1.67825311263596    3.93139873553180
C         2.11729654191117   -3.07111002436148    4.29390228918706
C         3.61952156675932   -1.13209036261349    4.46614559776854
C         4.73271596327618   -1.28565078724071    3.39272841136888
O         4.36979290074430   -0.60249475982901    2.15888790846718
C         3.37963173800179    0.31236691318417    4.76281428006972
C         2.84891829650057    1.17002952703547    3.84498399561607
O         2.66298414810640    2.35883852627133    4.47023800361577
N         3.15652152042684    2.21907726939714    5.77933175617847
N         3.51046649963734    0.94557193804933    5.96073619313522
C         2.48660154312971    1.00391631712541    2.41671153373816
N         1.05322787881067    1.26594461136535    2.18413055747040
H         3.33344358795277   -2.34259355669229   -0.54160746422670
H         4.83432907321976   -1.31482563435792   -0.08591376600811
H         3.91406040853764   -1.13365648117056   -1.50629343768184
H         1.87430322218891   -0.60881383269930    0.17913110880775
H         3.14437358223297    0.68095482309144    0.00394667542311
H         2.50398958617561   -2.57898453719100    1.95815206362427
H         1.14033762070326   -1.49382769956908    2.20621211136696
H         2.07406999214489   -3.13786478254262    5.38754753717616
H         2.89222720565402   -3.72178246822326    3.87685752002208
H         1.11384067314049   -3.46744968128736    4.10776574077468
H         3.99718431992666   -1.62144133337132    5.37177200249952
H         4.84664550268006   -2.36627698476282    3.25153971459068
H         5.73733305256271   -0.92437378434972    3.64020119351329
H         2.99203531426502    1.79222399110202    1.85195166848103
H         0.38907171946526    0.74016272592689    2.76388931964420
H         0.81465471403781    1.14656324840353    1.20315158316232
