32
 energy: -49.315393362892 gnorm: 0.143083055035 xtb: 6.4.1 (79825abcba525fcdf90b791dcacef51065a7a4e7)
C         3.60821334428473   -1.55005499129782   -0.38983916979991
C         3.01787986326537   -0.30122282853106    0.25378082781127
C         2.99317395298644   -0.39328471336908    1.80364077724642
C         2.35134264225742   -1.69951183703642    2.36168009553940
N         2.51839112648829   -1.75396408961808    3.83180983304887
C         2.12715708286560   -3.01644531364306    4.44256219888969
C         3.73702227249940   -1.07953238034863    4.36841974953440
C         4.81841396499600   -1.18538248419102    3.25738654698474
O         4.42853010140483   -0.46926008432198    2.05076441078540
C         3.30400379800946    0.29930854145035    4.74698145973688
C         2.82598190515792    1.19930537576933    3.84080535156337
O         2.52676018705057    2.37473131217563    4.44712306389143
N         2.85886234230447    2.15817451205745    5.79606713844393
N         3.32907041867092    0.92018090241295    5.95816783069684
C         2.48683925842332    1.00858802752126    2.40991805555027
N         1.03278843664223    1.25805886477121    2.43843712330311
H         3.08142252818630   -2.49253651893987   -0.20355763900221
H         4.65634846494217   -1.66592407627077   -0.10387130515687
H         3.67032649130605   -1.26217054120734   -1.44342952204422
H         2.01903442209527   -0.03783490917558   -0.11161408654950
H         3.71367396192748    0.51428577909167    0.02048415896325
H         2.84058101119747   -2.62413579264828    2.02733149620986
H         1.27438135727895   -1.75221276558224    2.16571858123552
H         2.93965792470295   -3.69780869961550    4.72179502769773
H         1.52268156517868   -3.61802052205877    3.75660657670194
H         1.49761940927429   -2.86052095553664    5.32461975167303
H         4.10665775010677   -1.61695932549664    5.24977927284670
H         5.05862193282692   -2.23687209532431    3.06415898467026
H         5.71740799165154   -0.69322215541883    3.64546811168230
H         3.00992210370080    1.75018120954171    1.79977881899765
H         0.61131859193886    0.49927204417684    2.98641153680838
H         0.70103270254666    1.21537254793728    1.47843460697175
