32
 energy: -49.308462679778 gnorm: 0.151112105088 xtb: 6.4.1 (79825abcba525fcdf90b791dcacef51065a7a4e7)
C         3.43760446552532   -1.30432646554032   -0.62791721369766
C         3.04301496349547   -0.14289723160321    0.27635229500235
C         3.06949481084121   -0.37398921628725    1.81162000764937
C         2.37627666427364   -1.70401433897591    2.23596232665049
N         2.20518978344292   -1.65193508871168    3.70571357588891
C         1.62622346834592   -2.73208033745281    4.49185963954874
C         3.51816414226279   -1.25002290328895    4.29089316395707
C         4.69488237526624   -1.40967370601775    3.28846966451611
O         4.44319981209306   -0.36883026946509    2.30151548966917
C         3.48235562581255    0.20062736424272    4.64634758275649
C         3.00280150165960    1.18878344873384    3.83812126246785
O         2.97134294926849    2.34527772218399    4.54544882952341
N         3.55660620751971    2.07184907989445    5.79426526899930
N         3.77607248998877    0.75718781838263    5.85343255670667
C         2.44394279135895    0.94616052712211    2.48621876564780
N         0.97733462191675    0.97694820763340    2.64567228330039
H         3.35555078981348   -1.03757278077211   -1.68744091227540
H         2.96079539527674   -2.26301562795469   -0.41029668881439
H         4.51048721834312   -1.50329778754292   -0.54967950497532
H         1.99430344957932    0.10237002662529    0.07479090823472
H         3.73352927905546    0.67756864225063    0.04475614219940
H         3.09851570958458   -2.46427643060206    1.90970330719565
H         1.38866704006792   -1.83079511818430    1.77816566851933
H         0.90082868510421   -3.22076567878276    3.83051728797076
H         1.19442726845036   -2.38905557467878    5.43721912457343
H         2.42233409631145   -3.46176000147096    4.67194594188612
H         3.71903399912544   -1.83342716741837    5.19728352739595
H         4.98670435137676   -2.43887414909348    3.05129135672570
H         5.59052727688943   -0.99028496907840    3.76064829351726
H         2.66684433260410    1.79403824723803    1.83256421342593
H         0.55299274656544    0.43113020682091    3.40441262377820
H         0.51793253224375    0.65436916243412    1.79809851185297
