32
 energy: -49.311048602162 gnorm: 0.142221484953 xtb: 6.4.1 (79825abcba525fcdf90b791dcacef51065a7a4e7)
C         3.65865289190395   -1.37318752262481   -0.44364108965878
C         2.83983676527743   -0.36534304767310    0.35392505363186
C         3.04894473768378   -0.42761244240588    1.89130855031616
C         2.35521897624209   -1.70885663125386    2.44515194671262
N         2.47471739571164   -1.78181488624637    3.91910883531620
C         1.88844721213118   -2.94959270103368    4.56138885156165
C         3.76826206176613   -1.20994703397553    4.39616183878429
C         4.87160000638245   -1.30542854624615    3.30596200073913
O         4.48180922068158   -0.50868599371494    2.15095457776115
C         3.41027029189809    0.21715255166470    4.65547813571745
C         2.73191333316474    1.08077953461017    3.84700139359238
O         2.52113011499104    2.26011634147338    4.48223053959536
N         3.00837942341244    2.04889956083891    5.78408091069487
N         3.55563188601720    0.83450496464557    5.85998188034646
C         2.49605407245841    1.00051266953612    2.38523638768834
N         1.12899848174067    1.49040372289010    2.12355227959343
H         3.28456421540235   -2.40042031852266   -0.37062569767329
H         4.68633392450837   -1.26212575732790   -0.08962488174274
H         3.79131868336742   -1.18922649555529   -1.51384959966805
H         1.74459505489160   -0.39512870580232    0.34220882952505
H         3.10465149489510    0.60801902445080   -0.07741064436402
H         2.72748576298398   -2.59921326314106    1.92098104896858
H         1.29958062349436   -1.62447011750873    2.16314041937608
H         1.65934907015903   -2.86754849340771    5.63057893933605
H         2.51327633449445   -3.83493302385748    4.40783241504768
H         0.92817943541510   -3.09722307055036    4.05666448214854
H         4.10733374164104   -1.65487956265329    5.33919850755273
H         5.14790532331272   -2.32375705648667    3.01044621457799
H         5.79239633086513   -0.80995227832918    3.63407287722951
H         3.13058168357741    1.77734704656353    1.94963443385609
H         0.36564013131617    0.97962313469683    2.58187251407031
H         1.04905922897543    1.66824506935916    1.12581935640412
