32
 energy: -49.315304538188 gnorm: 0.148282749251 xtb: 6.4.1 (79825abcba525fcdf90b791dcacef51065a7a4e7)
C         3.98315055500123   -1.21575045572241   -0.41271129716144
C         2.91324638004723   -0.39952425836893    0.30241242786901
C         3.07936830411201   -0.36386558420187    1.84587723293112
C         2.40704584661591   -1.67303818802029    2.35933048322597
N         2.36898950361970   -1.68492162830366    3.83938527896931
C         1.88925437955280   -2.92418501080419    4.43438264089585
C         3.63847884441182   -1.11915638638179    4.38360648102597
C         4.78503462209424   -1.31324310621049    3.35271016319804
O         4.49420286441257   -0.55386641957400    2.14459525382059
C         3.34449584691490    0.32066048373133    4.65289748750340
C         2.82250145860950    1.23999308674423    3.79150106831303
O         2.56979230191554    2.39408064137063    4.45708421426523
N         3.00889805813037    2.15139853893839    5.77052638456666
N         3.51084483483066    0.91882108958807    5.86434916299909
C         2.38437167861050    0.97771586786482    2.39935084677929
N         0.90906548255519    0.94979239900149    2.40152422795481
H         4.02369214358232   -2.06701796204955    0.27589658706784
H         4.93721724935440   -0.68603762264638   -0.46703949087910
H         3.70908605174028   -1.44663244265166   -1.44633128738593
H         1.90276680838109   -0.75605148773794    0.07350583658835
H         2.97420848167380    0.64027566432151   -0.04213189907207
H         3.01110339099890   -2.46946579564080    1.90447865840217
H         1.37715366554879   -1.66320071034220    1.98483183297739
H         0.99912669811264   -3.30168835724117    3.91713164501636
H         1.69139617336349   -2.65595466568198    5.47684276743569
H         2.66901504769477   -3.68365347194026    4.31675366523334
H         3.88336370724709   -1.60706940857891    5.33451394528136
H         4.94935399983951   -2.37180084479810    3.12222845179334
H         5.67962864083108   -0.90550633015475    3.83693285418035
H         2.81055316267573    1.73204924049183    1.73212037613507
H         0.69880560679856    0.11769298507451    2.96461531960408
H         0.53321870647022    0.92796419080451    1.45719825361830
