32
 energy: -49.318720764285 gnorm: 0.146574783390 xtb: 6.4.1 (79825abcba525fcdf90b791dcacef51065a7a4e7)
C         3.97297414154643   -0.12162372738250   -0.40162716439007
C         2.83562110445121   -0.79785455069483    0.35432391686947
C         2.96540707517742   -0.63981416643974    1.89358688504430
C         2.05539333635556   -1.69101032764796    2.59817630521184
N         2.21889968459726   -1.75784589970460    4.06819343891032
C         1.74084304787232   -3.01280932475131    4.63075013243891
C         3.56443764124402   -1.27340269392815    4.49564238708501
C         4.59859324645176   -1.67539720795096    3.40755708270904
O         4.36847937794618   -0.83598979700566    2.23998673676614
C         3.51209238735198    0.21476803417439    4.61657264625481
C         3.08701092723333    1.07296426445836    3.64576919075464
O         2.92793298754778    2.30067758858020    4.19911821637994
N         3.27342560495744    2.18365857348633    5.55697690043434
N         3.60522383464734    0.91123631871387    5.78248075688302
C         2.61249162693878    0.88839139245003    2.25307626681725
N         1.23175995210348    1.39742777175219    2.14456443322857
H         3.69957499495993   -0.27707423244320   -1.45118366723789
H         4.89674025443821   -0.66922662154052   -0.20018800334681
H         4.13398489768775    0.93847827751292   -0.18472302876165
H         2.94635779434393   -1.87274148883927    0.17284577183336
H         1.87972713877638   -0.41758654451073   -0.02682437374176
H         2.09047904310378   -2.65247283670204    2.06861850599358
H         1.04998820875601   -1.31253602479234    2.38151608008465
H         0.81108903743214   -3.39109923308632    4.18934455683232
H         1.55946484883045   -2.87955292231223    5.70180717162887
H         2.39747529924030   -3.88186371570565    4.52014195884337
H         3.69411790273555   -1.77010822448463    5.46451769454010
H         4.64258109954363   -2.74211669741725    3.16089584929512
H         5.53213931503331   -1.28742402154656    3.83062670458179
H         3.16145057114323    1.45904192368222    1.49885610833070
H         0.54643867411271    0.95627490949466    2.76857494366956
H         0.92432726461936    1.40514049190975    1.17558844241647
