32
 energy: -49.315469833186 gnorm: 0.142687668608 xtb: 6.4.1 (79825abcba525fcdf90b791dcacef51065a7a4e7)
C         3.95096814587485    0.16219418004109   -0.43329439568432
C         2.94341008699475   -0.72516108906871    0.28764212551735
C         3.07045207601785   -0.72421739449993    1.83522445340044
C         2.23435384614674   -1.86917183865506    2.48299268163288
N         2.13483773879022   -1.69544220910908    3.94998492475929
C         1.23943981138760   -2.66464633194692    4.56549063438354
C         3.48046198017983   -1.29196694105453    4.45433926370982
C         4.69631673363230   -1.47712575452255    3.50438112869434
O         4.47511706357814   -0.90454686617049    2.18377451966754
C         3.42479917425843    0.19199883948518    4.61793472532602
C         3.09460094871204    1.10380752252340    3.65917072322755
O         3.16843728850247    2.35388000436901    4.17940902983138
N         3.54953400302436    2.16649661660909    5.51974166008067
N         3.64494089123282    0.86191213531390    5.78233888737745
C         2.54340103840355    0.70981426389672    2.34016457083123
N         1.07650511742188    0.83990562648673    2.43292985068642
H         4.07431685076297   -0.26256723027134   -1.43571329246440
H         4.92640393424793    0.22619523998819    0.05478283174952
H         3.58504325767300    1.17087155789994   -0.64650098405827
H         3.11412766164845   -1.74720148705626   -0.06854292011431
H         1.91140732080341   -0.44304888927115    0.04475523451476
H         2.68067980476346   -2.82644344294430    2.18216576002413
H         1.26674194242780   -1.90615856275333    1.96978405328853
H         0.34999724724245   -2.82695494225951    3.94506135332654
H         1.08711181593440   -2.43689347953855    5.62508646054889
H         1.62165306125285   -3.68837390962934    4.63294795874193
H         3.77672043809942   -1.75637193503227    5.40239603215979
H         4.86016233699735   -2.55751696416965    3.42328477956543
H         5.53611380112747   -0.88906689094150    3.89161104912872
H         2.87647336989102    1.42354594869652    1.58155011711632
H         0.79810233222809    0.30730135189524    3.26509257475642
H         0.64515408430030    0.49063761790423    1.58120397962195
