32
 energy: -49.311801481433 gnorm: 0.154694315948 xtb: 6.4.1 (79825abcba525fcdf90b791dcacef51065a7a4e7)
C         3.79569043749639   -1.61914193354563   -0.19456640271224
C         3.02898336492381   -0.42187472079126    0.35409886821140
C         3.07673279433950   -0.33792845566339    1.90388100288207
C         2.31471795185799   -1.57071517709778    2.47760123986457
N         2.45287428879272   -1.81867722217362    3.93072867747694
C         2.28177419383255   -3.24697516070074    4.15574232036839
C         3.63943127549489   -1.08050030427711    4.45517846127556
C         4.78920824089568   -1.12999805484411    3.41087489548258
O         4.47145339310097   -0.22498371100428    2.31508358226679
C         3.14907941892270    0.30703526149512    4.71269815951570
C         2.75328440829964    1.20928045668093    3.76985442761224
O         2.57721417144824    2.40115694199476    4.39211696335525
N         2.89130846746647    2.18780068632478    5.74587568905664
N         3.38778237402771    0.95724307293109    5.88459148700416
C         2.39612290625257    1.05367004520920    2.33910274547002
N         0.94907624685493    1.31764207248605    2.22210890776979
H         3.18732463726383   -2.52013807982853   -0.05826599166406
H         4.77192882545445   -1.82069117048763    0.25278917118529
H         3.88650402389866   -1.55218223176561   -1.28271042804137
H         2.02146450097220   -0.70444172452617    0.02907504126469
H         3.27959075999204    0.57159016194767   -0.03811855932839
H         2.64005583581449   -2.42586715813004    1.87019447069579
H         1.26367401951954   -1.40156131052359    2.21737529302181
H         1.19436995428075   -3.38247433246829    4.19544944342035
H         2.70315889785185   -3.49978550233665    5.13366888419810
H         2.71159802065738   -3.87307045594602    3.36712848791198
H         4.06847147749443   -1.59756917185501    5.32167543830676
H         4.78496272630660   -2.13631938377708    2.97732382758667
H         5.77837392365331   -0.87158619860855    3.80558227429194
H         2.94652801196692    1.87344779539160    1.86914033462415
H         0.35789347869158    0.58727309474797    2.63530899678901
H         0.78976959668234    1.23300900751124    1.22163529114741
