32
 energy: -49.317496273079 gnorm: 0.143331014045 xtb: 6.4.1 (79825abcba525fcdf90b791dcacef51065a7a4e7)
C         3.60324751556453   -1.54649911289245   -0.37661197988376
C         3.14972869003348   -0.24516281794777    0.27390059633019
C         3.06204454224527   -0.31577587252268    1.82260228628840
C         2.25616425529989   -1.56005145980150    2.30418287120910
N         2.19726414171033   -1.71877868827946    3.77506292959981
C         2.10034029942140   -3.11705768338961    4.16922408044367
C         3.39436895423798   -1.13277445850205    4.44693295315372
C         4.64915317717225   -1.22051248640937    3.53434014227260
O         4.42115981074956   -0.41595051764008    2.34208313524935
C         3.17368590994415    0.29321114251292    4.83407678138866
C         2.83112736503339    1.19723005941878    3.87227751630784
O         3.01636902064930    2.45245221930572    4.35069553634845
N         3.44858055146216    2.29900604530086    5.67978780923242
N         3.52163354371014    0.99411382749137    5.94796687147476
C         2.41055448160045    1.00892770487608    2.46284856400840
N         0.94232860970511    1.03487454122530    2.31809919958808
H         2.84252087564623   -2.33488286280493   -0.36155060574754
H         4.50417812392538   -1.89883986726578    0.13129601089676
H         3.84313302969722   -1.38686839336010   -1.43196078553218
H         2.10094637837283   -0.09707127726144   -0.00664070283055
H         3.65786908240959    0.69126993768835    0.01217920991237
H         2.70636121595321   -2.48495295563072    1.91953686175892
H         1.19924572704450   -1.48552262764218    2.02419608815067
H         2.35108840264632   -3.26461790980254    5.22645443804942
H         2.76805499553883   -3.75952733860801    3.58680813792603
H         1.05726559085409   -3.42389519139271    4.04076584679579
H         3.69564349977218   -1.79328185526063    5.26864844470225
H         4.89740566642196   -2.23525152881233    3.20367029681815
H         5.53888060688308   -0.85557831210471    4.05991364292304
H         2.72015353868143    1.85964556530642    1.84943716428191
H         0.43598784219048    0.43596865707832    2.98036877674717
H         0.79557455178007    0.59695559999822    1.41246181635365
