32
 energy: -49.321474706987 gnorm: 0.138164993788 xtb: 6.4.1 (79825abcba525fcdf90b791dcacef51065a7a4e7)
C         3.61722484153442   -1.48229667464108   -0.45939550520204
C         2.93803579721399   -0.34927366009510    0.30039602960273
C         3.03635639252183   -0.35469072472172    1.85005900818266
C         2.39369928961988   -1.67055652276288    2.38398191552075
N         2.27737747642841   -1.62468015024806    3.85928402113976
C         1.99888930240829   -2.95371341907751    4.38469462448784
C         3.59162612375532   -1.14326000484535    4.37779667110944
C         4.76359289048437   -1.24870114960664    3.36271878933745
O         4.44820326634157   -0.41550453933443    2.21072464810661
C         3.32036318363765    0.29065310617251    4.69768086782171
C         2.79586636385705    1.23159383120102    3.86150623635259
O         2.66086739418312    2.36099939674238    4.59974689671996
N         3.16096448931416    2.08023947005710    5.88345853139086
N         3.46260963166641    0.78281053505356    5.95888278684722
C         2.50078748428168    1.05176278282226    2.41948733070683
N         1.06078590721182    1.23682134763280    2.15593164711236
H         3.04278769147154   -2.39472071355961   -0.26449774519673
H         4.64979394742563   -1.57500472141243   -0.11443644283498
H         3.66401071257900   -1.27857823920328   -1.53321951705286
H         1.87756695840804   -0.39961237499499    0.02937810964021
H         3.38014442181756    0.59063426321148   -0.05276697414665
H         3.10293442330197   -2.47871666200221    2.16051972345472
H         1.42781398618829   -1.88992483281033    1.91497547705296
H         1.79646922235787   -2.81880959279545    5.45390542270948
H         2.83353275310014   -3.65849522044906    4.31782589761336
H         1.13735404027087   -3.37386349148920    3.85565159172410
H         3.95867792756259   -1.59274944629550    5.30811110520011
H         4.94585060768462   -2.26026806130188    2.98300616634688
H         5.72295904769404   -0.90738339078570    3.76785841717073
H         2.99966315408426    1.85428261185851    1.86909566479907
H         0.47378606786175    0.52100659136602    2.59945238571722
H         0.95428433343754    1.02910274848993    1.16648775351635
