32
 energy: -49.318833977245 gnorm: 0.135179322780 xtb: 6.4.1 (79825abcba525fcdf90b791dcacef51065a7a4e7)
C         3.66111232565067   -1.52615256976038   -0.41528616820589
C         2.97097635494741   -0.38145757770776    0.31663445745115
C         3.00073073526871   -0.38344576182579    1.86913642379032
C         2.13388659488787   -1.53825391823528    2.45614918484233
N         2.21114021251695   -1.74701602539682    3.91991212956893
C         2.11634242940544   -3.18011507575105    4.15903946485020
C         3.47063219542712   -1.17590794252222    4.48150426050561
C         4.67827903625454   -1.15751142724506    3.50361995001751
O         4.40474966287504   -0.45582978452300    2.25718412766135
C         3.29955380872820    0.28141193643558    4.76251538038414
C         2.91077804111116    1.20015108030140    3.83277016251663
O         3.02239958699561    2.41960128078094    4.41523284358436
N         3.33687036645963    2.20372388015222    5.76850439069363
N         3.54405343242560    0.89844282407950    5.95103382188188
C         2.44216764007220    1.01415647886085    2.43826681377247
N         0.99273306803242    1.22218140980221    2.25611889235569
H         3.16545029291135   -2.50021338933525   -0.33779119830878
H         4.72420679931637   -1.62848079781991   -0.18474426962370
H         3.59980644305265   -1.30046761147571   -1.48397509233118
H         1.93799825371597   -0.27899334463509   -0.03413067373438
H         3.48118288807932    0.51087758082802   -0.06682128462013
H         2.47423513999468   -2.47896556104997    2.00305194869696
H         1.12704355609655   -1.33179780259129    2.07579818154109
H         1.82088378346581   -3.27285712272309    5.21093668566748
H         2.99712653081297   -3.77866739240458    3.90650631245437
H         1.32937666453215   -3.46171449522156    3.45190279165535
H         3.68183418555174   -1.59280610134891    5.47339254771461
H         5.07836156377261   -2.15809101726962    3.30502079306467
H         5.49580671587373   -0.60451397263999    3.97991992403771
H         2.88057092066521    1.85435371488889    1.89263216465188
H         0.44141439801733    0.51402531748339    2.75434865448322
H         0.84582690409839    1.10095721357352    1.25751381896317
