32
 energy: -49.320201638902 gnorm: 0.147743000026 xtb: 6.4.1 (79825abcba525fcdf90b791dcacef51065a7a4e7)
C         3.92388914671925   -1.26852156157973   -0.40648828928018
C         2.98432588572022   -0.31936831295716    0.32744023315234
C         3.07989201095208   -0.41753250963828    1.87417309003023
C         2.41105557821803   -1.74029656063486    2.35639470716941
N         2.38564903521888   -1.76961768106606    3.83647797001990
C         1.94785741989092   -3.01208498999039    4.45660284671015
C         3.60301065463384   -1.11866057842899    4.40406562212266
C         4.77005584024155   -1.11433854602155    3.37791071914907
O         4.50824156098015   -0.35605799502006    2.16249244212403
C         3.26228870363874    0.30921485208761    4.68172831428197
C         2.63376750325048    1.20282552738752    3.86559387903159
O         2.64476624076357    2.40404237365104    4.49467099714417
N         3.16547282867963    2.19284490161293    5.78350732304408
N         3.58440530840712    0.92794143451986    5.85070289449987
C         2.35091807629409    0.89986305647039    2.44185261218984
N         0.89304671735709    0.90495280890512    2.21404128217754
H         3.73162621984169   -2.32937415307099   -0.21127674224562
H         4.96344758669925   -0.99855994185694   -0.20591543903900
H         3.67416237366667   -1.15811056383298   -1.46584379123500
H         1.95675434977088   -0.52144543308668    0.00519742257171
H         3.25919941124761    0.67124818005360   -0.05561923032946
H         2.89773630660393   -2.61322054410838    1.90118244178582
H         1.34838829258250   -1.84988606482175    2.11195189201551
H         1.00084638792528   -3.17304294029918    3.92778595560456
H         1.74530574237325   -2.70701804803929    5.48797352785176
H         2.59261334359042   -3.88985504570054    4.34495544372055
H         3.89528701462547   -1.64545978182294    5.32020417023569
H         4.93213874809991   -2.18801551085907    3.23089345292931
H         5.69616695259659   -0.66809836979057    3.75765703450389
H         2.72074606008804    1.75056819382298    1.86273775313624
H         0.41390057538466    0.22971092251418    2.82078471269726
H         0.69764259730660    0.66574541787056    1.24549295119684
