32
 energy: -49.314849953557 gnorm: 0.147640506135 xtb: 6.4.1 (79825abcba525fcdf90b791dcacef51065a7a4e7)
C         3.81934215600911    0.41434141141903   -0.30199796267683
C         3.16050737812274   -0.81836747635183    0.30519856198010
C         3.02596486151365   -0.69352369473506    1.84710127070852
C         2.19410546570665   -1.82083900033999    2.53029580298296
N         2.05710390298103   -1.61203028766555    3.98967279154544
C         1.46060288839667   -2.73006726283129    4.70669528024539
C         3.42817609042626   -1.30347493544689    4.49248973808037
C         4.49647863175179   -1.72525147310998    3.44566536057494
O         4.39201722487221   -0.76890651159434    2.35238138883716
C         3.42393540119831    0.18453600185275    4.62598787230089
C         2.83750052327271    1.03898654098393    3.73961166180483
O         3.09087787548335    2.29742531374958    4.17654724608458
N         3.74505762006780    2.18907968576324    5.41636533320229
N         3.88126592942174    0.89158567653933    5.69557321691446
C         2.51838011930480    0.75870267043255    2.31889620631467
N         1.06830377715769    0.83547855659319    2.05679529181247
H         4.10448628690780    0.22475605152114   -1.34278181092508
H         4.75386561755139    0.62858445699274    0.22198324976187
H         3.12280939777856    1.25015515310910   -0.41621544384793
H         3.81187590894072   -1.68310018683003    0.13627481519663
H         2.24042327684402   -1.05362319993218   -0.24408372494575
H         2.53866947906096   -2.82046346989135    2.23348073046376
H         1.20384743359598   -1.80309254756601    2.06114975627598
H         0.41418416667272   -2.94213036115411    4.45685181063724
H         1.46874671352811   -2.52562444197472    5.78184890375975
H         1.94108844371094   -3.69973771248609    4.54077822674684
H         3.61496685339869   -1.76799735969264    5.46797979526368
H         4.28848823441171   -2.75407059687757    3.13112064842590
H         5.49594515823675   -1.52612714876340    3.84869826567020
H         2.97076103491579    1.59393311556882    1.77705895541738
H         0.64706392636966    0.14541784237729    2.68928515440990
H         0.86479519976990    0.56652301692916    1.09776661959873
