32
 energy: -49.310644330847 gnorm: 0.149496231813 xtb: 6.4.1 (79825abcba525fcdf90b791dcacef51065a7a4e7)
C         3.23529400479088   -1.64858501011918   -0.37804492068986
C         2.98346066093320   -0.30157941107777    0.28864688335432
C         3.03001251038812   -0.29392514068913    1.84071838684452
C         2.07532868993885   -1.39197980920514    2.39968112659439
N         2.28855150031273   -1.74417494452653    3.82187882707131
C         2.21420061475998   -3.17970288018791    4.05355289084375
C         3.55680512996651   -1.20446994855940    4.39469768596289
C         4.73487127459120   -1.24498464538979    3.38201524117481
O         4.43424499614515   -0.55645104259562    2.13448848467324
C         3.32675526613609    0.21483596246904    4.80048586001867
C         2.99040834478494    1.14072077122786    3.85747874722745
O         2.93232981164902    2.31990934579845    4.52450357271799
N         3.32571200482993    2.12272038808926    5.85987084963740
N         3.55075086469712    0.81531420893560    6.00145841895812
C         2.60618821460179    1.14407856472784    2.42528012991023
N         1.17981039147556    1.51569366326175    2.35700616905649
H         3.03419157297811   -1.75137820205610   -1.45017932019610
H         2.59030244429915   -2.44255062272815    0.00587562600459
H         4.17142316031346   -2.09050015043027   -0.02426343719149
H         1.96953836910009    0.02789024009322    0.03568406494190
H         3.66781313894339    0.47515956706702   -0.07460136452773
H         2.19619713073518   -2.35448967576128    1.88486251801594
H         1.02953552580929   -1.06461733175353    2.38647594975995
H         1.33619568253794   -3.51932225459965    3.49128011056719
H         2.13446148204156   -3.40299161495093    5.12201080412302
H         3.14535932759812   -3.62413550503001    3.68738528927028
H         3.74950489870791   -1.79943718098851    5.29532718962254
H         4.97729751413788   -2.25428865389493    3.03101367647225
H         5.60883271761001   -0.76111749299248    3.83266291113932
H         3.06021138711238    1.97673017879487    1.88085361472954
H         0.75441132718796    1.08369356717944    3.18530670598228
H         0.78082399504346    1.18740892525110    1.48149043398152
