32
 energy: -49.316480223976 gnorm: 0.149696780673 xtb: 6.4.1 (79825abcba525fcdf90b791dcacef51065a7a4e7)
C         3.77151222659469   -1.48524021161622   -0.32948617191239
C         3.04139160896209   -0.31152813338862    0.31211022351030
C         3.09520378455283   -0.33894167706983    1.86372370454605
C         2.38549267382312   -1.62687368701925    2.38056595212169
N         2.41828861392384   -1.77009290576986    3.85384948780240
C         1.98222331635971   -3.09181302544246    4.28145252615185
C         3.62256741022003   -1.12896203692719    4.45927000242838
C         4.78290854528711   -1.14378155177577    3.42563763079118
O         4.47847131727483   -0.24960287072310    2.31724231777519
C         3.35725511350511    0.32947512660844    4.64524500084668
C         2.75284181558685    1.20066220574276    3.78770665900940
O         2.70442541663966    2.40842500435281    4.40231694449761
N         3.13699737598050    2.25058511747033    5.73077728314893
N         3.55800988621568    0.98771923633387    5.81976425571306
C         2.29766516467484    0.95224162602410    2.39848719410256
N         0.82443384406952    0.91544176665355    2.32400183735644
H         3.07378141027325   -2.30057925981191   -0.10840982709641
H         4.79058430043952   -1.67259074602172    0.01718713336037
H         3.86359647015591   -1.25595109431350   -1.39519491380931
H         1.97000272429807   -0.28920938230974    0.08362260303639
H         3.44485309728964    0.67247257850371    0.04271742646548
H         2.92210027182851   -2.45884695204239    1.90522880525819
H         1.36168531771421   -1.57107649815505    1.99361751659505
H         2.33185869261780   -3.92588692376318    3.66140374494887
H         0.89315057274585   -2.98369324144432    4.27444000641124
H         2.34650411278836   -3.40122739856276    5.26644890322452
H         4.02918991184766   -1.62967911360806    5.34594540177325
H         4.94106160786152   -2.16388993341041    3.05816835215456
H         5.69203615590142   -0.82714820768488    3.94932615325935
H         2.56640513908436    1.77659217309712    1.73210067136789
H         0.54813574943818    0.16130340008926    2.96322395441887
H         0.58324200882871    0.75244953615851    1.34996444021569
