32
 energy: -49.311007960249 gnorm: 0.157671287580 xtb: 6.4.1 (79825abcba525fcdf90b791dcacef51065a7a4e7)
C         3.89933259702672   -1.46287628213407   -0.31269003594028
C         3.08098521836495   -0.29646148147235    0.22777843750004
C         2.97986019634240   -0.43497499884365    1.77106692757341
C         2.30499378277678   -1.73112760933087    2.31340294009053
N         2.37048440685993   -1.66107452720212    3.79088567767262
C         2.04826121657497   -2.91907145452714    4.44933638608277
C         3.63849564166046   -1.15277691588128    4.39226015881396
C         4.78024178053252   -1.08127272403228    3.34044746099060
O         4.38541034709740   -0.34251263729996    2.14917948915962
C         3.31530456975064    0.26525123935327    4.73396172936199
C         2.77555197849286    1.14596696974241    3.84364643980580
O         2.56955511271167    2.35206729731663    4.42817036481203
N         3.10090662457505    2.21859186273695    5.72304050576866
N         3.45803120573169    0.94593502351223    5.90416767381962
C         2.38065047083298    0.90257167915138    2.43522860006718
N         0.90510322554348    0.91083337840137    2.43743987216129
H         3.54042524668948   -2.47910841446523   -0.11536145394882
H         4.87799757998638   -1.35598844432374    0.16120904360308
H         4.00471189318857   -1.43066182312621   -1.40110427711617
H         2.09959225224514   -0.06908770301373   -0.20320632191744
H         3.72142275832051    0.56599839840540    0.00503696789319
H         2.79767124835276   -2.62026900928230    1.89774790219673
H         1.26988002240986   -1.71586144253341    1.95377762944540
H         1.22728136230298   -3.36341398134361    3.87406561528389
H         1.66585747429295   -2.72320887012855    5.45592653546839
H         2.78103684019380   -3.71330177047273    4.27357032096342
H         4.00063931437270   -1.70688561314161    5.26637012417568
H         5.00004048891381   -2.11991756342339    3.06920476988823
H         5.59093548496037   -0.53672355258896    3.83770119286823
H         2.71810185222328    1.74118891691512    1.81984767070682
H         0.45826642222112    0.13811127120409    2.94430044175118
H         0.53325133636676    1.12230380599287    1.51521688069048
