32
 energy: -49.308147261672 gnorm: 0.146639929797 xtb: 6.4.1 (79825abcba525fcdf90b791dcacef51065a7a4e7)
C         3.40669710448423   -1.43506903114594   -0.38721471580929
C         2.84296752928500   -0.22268638366241    0.34398933266866
C         3.05384581787985   -0.32568298378507    1.87894003166713
C         2.16469916082705   -1.47313392585457    2.44670683677367
N         2.30245023998879   -1.73604375073609    3.89724285354705
C         2.12786799005525   -3.13085771617675    4.27665873557711
C         3.60944563379806   -1.20622171235928    4.38603917123995
C         4.70399913604043   -1.46195436706207    3.31293132315458
O         4.45678922256129   -0.61077065340341    2.15744388101528
C         3.55638162629330    0.26430325533413    4.64441249968506
C         2.82394110997428    1.14235170696307    3.90130002399609
O         2.72377404463548    2.32491408659783    4.55726777604694
N         3.37697573573335    2.13405777887613    5.78760928151923
N         3.77696775410720    0.86265289451376    5.84707734007984
C         2.49427525902796    1.06763928421779    2.45749680455372
N         1.06919378863272    1.43434361631088    2.34802752909665
H         3.45866413859084   -1.20993893129299   -1.45824070382551
H         2.73328608070480   -2.29499162525934   -0.35821096868824
H         4.42910778985706   -1.74927632638101   -0.15756652856197
H         1.77967154257835   -0.15015165276324    0.08958963994217
H         3.30764777963256    0.66077588821879   -0.11117845645905
H         2.46965882658141   -2.33983289466699    1.84512132864706
H         1.09763215319208   -1.36809166096618    2.22008374074485
H         1.47909766352102   -3.60343021952646    3.52955971321672
H         1.77884639529400   -3.18785445228882    5.31239702168667
H         3.04905427341595   -3.71246828306997    4.16802818710284
H         3.87629085385709   -1.59863711856394    5.37450085029708
H         4.78071729686457   -2.47129140237719    2.89338367480633
H         5.62942510039232   -1.23056846297949    3.85243729629021
H         3.07158651052945    1.84200110803305    1.94473811956325
H         0.54454721583964    0.81521086576480    2.97659004022270
H         0.73944234496929    1.57997836753166    1.39747857608853
