32
 energy: -49.312518199276 gnorm: 0.139018688169 xtb: 6.4.1 (79825abcba525fcdf90b791dcacef51065a7a4e7)
C         3.67313069182859   -1.42351299389136   -0.42550441169906
C         3.00142701717568   -0.27541233124412    0.31813603971560
C         3.06579214757378   -0.37312432917382    1.86650973984768
C         2.47276765844369   -1.74143218308091    2.31998541472576
N         2.34373405462574   -1.77165577091135    3.79463403520590
C         1.86182966544039   -3.03581875100943    4.33278038455015
C         3.55210798358424   -1.16433748225602    4.42619333084356
C         4.75456904415545   -1.10681050856850    3.44344968077244
O         4.44083658529745   -0.22339823654367    2.32902946953857
C         3.37179233725194    0.28114737553671    4.75797045597115
C         2.73036656360091    1.09398994557544    3.87055043264915
O         2.78514757326247    2.34483238347984    4.39129333351133
N         3.43336515330031    2.28750595647398    5.63763455899671
N         3.80149899026154    1.01800344071137    5.81885620756245
C         2.26896038653160    0.88448470648087    2.47697906000436
N         0.79644072554781    0.85967959585830    2.38541841371554
H         3.11412690792175   -2.36539057123421   -0.39614118716650
H         4.63803850520008   -1.71342074176355   -0.00277884924765
H         3.77543267137929   -1.19395734454353   -1.49022345211510
H         1.98119320860312   -0.06544195937728   -0.02188494257136
H         3.49365611748563    0.65810767415440    0.01836619823097
H         3.16874218479284   -2.51971837088605    1.97945245552396
H         1.47614264326679   -1.79109640018706    1.86688944190296
H         1.41947944249504   -3.00580389530908    5.33568119880950
H         2.70840049182546   -3.72925740254267    4.31607192232376
H         1.09148528766210   -3.35687223822583    3.62415508363140
H         3.74259671430556   -1.69719594373067    5.36535711830458
H         5.03804398061479   -2.04567469740614    2.95473385134010
H         5.61342056504940   -0.62104499258434    3.92034094960706
H         2.74047908176314    1.77433753475800    2.05074195918561
H         0.38820141375240    0.02488770474438    2.82146127932257
H         0.27494714374615    1.29430585628254    1.62869305985214
