32
 energy: -49.315205568725 gnorm: 0.150799326759 xtb: 6.4.1 (79825abcba525fcdf90b791dcacef51065a7a4e7)
C         3.44621678071610   -1.40062193921462   -0.44429865283228
C         3.05774730141308   -0.14266688661082    0.32314036216958
C         3.01435847310894   -0.30423566170381    1.86689053190455
C         2.28656941538271   -1.62221347077300    2.27042765840346
N         2.29463807381982   -1.69818820062721    3.74904675447877
C         1.78652377665002   -2.94745312671948    4.29777107218267
C         3.58210714775566   -1.16732119183707    4.28614432960681
C         4.70759975438926   -1.35501865364231    3.23113575802768
O         4.43944047183887   -0.40534305708635    2.16016210372119
C         3.44128057204048    0.25433352140339    4.72327362305685
C         2.91030038173886    1.20468854355792    3.90196993923947
O         2.96830975935818    2.40191500915252    4.53605560613070
N         3.48888915068086    2.12648177516138    5.81275934401349
N         3.83752284787360    0.84076197726530    5.88610507237024
C         2.40734498675578    1.03659888974254    2.51719160788944
N         0.93268369754470    0.99410137927831    2.48751218090820
H         3.45864831107122   -1.18831903248524   -1.51912595843975
H         2.76839062511304   -2.22408631833653   -0.20713074874346
H         4.45994706549245   -1.68307210535002   -0.14536564572344
H         2.05525940892332    0.15665881854938   -0.00243759590918
H         3.71594305911201    0.67119654169167   -0.00551708134533
H         2.70964271184189   -2.46550971012483    1.70834842371451
H         1.24599091019121   -1.53545004812033    1.93772298151531
H         0.69339460630104   -3.01302828384538    4.35392416786706
H         2.05769175537089   -2.95907014125675    5.35803116904511
H         2.11177925520187   -3.92582013009204    3.92944717558318
H         3.82651692424537   -1.72130741383537    5.20026458860070
H         4.81473680401325   -2.38780721705183    2.88108347277332
H         5.61985245701266   -1.03767833383996    3.74892865471698
H         2.71434277261494    1.88829438581073    1.90382944955397
H         0.72452356959272    0.46317528583796    3.34100914933812
H         0.67334464286087    0.31268490076483    1.77906058889368
