32
 energy: -49.318209407222 gnorm: 0.148214423731 xtb: 6.4.1 (79825abcba525fcdf90b791dcacef51065a7a4e7)
C         3.64932654368218   -1.31868531804883   -0.38216232475129
C         2.83865683206862   -0.22476828982724    0.30229530557636
C         2.97967431814594   -0.31255359976148    1.84617336019216
C         2.21089349523807   -1.60176742079890    2.26627859044775
N         2.30715541149701   -1.74067495580207    3.73719328368138
C         1.75372183408719   -3.01785956904932    4.16433742285253
C         3.55690393928769   -1.19185659527882    4.34117774474502
C         4.69417295804416   -1.28968573073579    3.28663724104971
O         4.38658616910443   -0.33618976640560    2.22974863812598
C         3.41659667092613    0.24420884143942    4.72853572417532
C         2.97234225855045    1.20712223101169    3.87116171009499
O         3.06105600931859    2.41717414459604    4.47670705874979
N         3.70039943479137    2.17599200083610    5.70549099468959
N         3.94536841456033    0.86918414102497    5.81614299623725
C         2.35511189686866    0.99853247976396    2.53911580548236
N         0.89142370707502    0.99081530250170    2.72585131578397
H         3.46289350749126   -1.27501859128489   -1.46096571032789
H         3.49815405389039   -2.35167166462326   -0.05986342540123
H         4.73132574991083   -1.20647263106282   -0.26608407930532
H         1.83024972993923   -0.59771336707235    0.09109410953239
H         3.17932913910203    0.75902903042458   -0.04367616824290
H         2.64933501434748   -2.50155917729335    1.81437543776468
H         1.16272375520069   -1.54937717873311    1.95065321838859
H         0.76367451506346   -3.11959854320055    3.70407646884313
H         1.54477670223116   -2.89257484858411    5.23132578854543
H         2.41342565634590   -3.88121260990330    4.02992012774832
H         3.76384968573283   -1.80433888390831    5.22678015034352
H         4.80098339573977   -2.33628686973943    2.98023105225802
H         5.65256064219755   -0.98344067469673    3.72106372108238
H         2.59515245376914    1.85812725115614    1.90719542983144
H         0.71931169695167    0.19865607328932    3.35555873976982
H         0.34357839417672    0.77444355135009    1.89727567421448
