32
 energy: -49.318322643489 gnorm: 0.143646568066 xtb: 6.4.1 (79825abcba525fcdf90b791dcacef51065a7a4e7)
C         3.39214484424444   -1.55647766244787   -0.32021183259210
C         2.77105423290196   -0.33248405957297    0.34191217384447
C         2.99843745385231   -0.33813192597649    1.87795143066890
C         2.10131967160284   -1.44955914562774    2.50204584420760
N         2.32964819504460   -1.69600272859503    3.94401787758356
C         2.06445773588292   -3.11886733989121    4.10235836048708
C         3.67712557814657   -1.21219679861156    4.36604482964848
C         4.79700807922826   -1.32224818796411    3.29424312007324
O         4.42169676646637   -0.53746179487999    2.12632641398656
C         3.38593927573338    0.21651212693595    4.69164830033047
C         2.88865048496847    1.21137214592631    3.90259078392422
O         2.76446224599808    2.33586412809768    4.65017086664010
N         3.33618684654918    2.04246483744272    5.90072539859371
N         3.72549169621128    0.76640790041452    5.88973096012327
C         2.59860916130340    1.11099340220964    2.45185669219154
N         1.23213326642164    1.56535269287496    2.12996530408205
H         3.63561778101524   -1.42405935016468   -1.38024349334497
H         2.76750854095901   -2.45290773927255   -0.31445863906903
H         4.32370525175105   -1.89368453487191    0.14376538612717
H         1.67702509816986   -0.32008251226806    0.28253784401680
H         3.14327912437793    0.57818499940846   -0.14362004953097
H         2.31856933395494   -2.41693097834155    2.02974620007270
H         1.04651994069603   -1.16876777672915    2.40418036557535
H         1.09014241754585   -3.35182836975083    3.65646209436449
H         1.95842416585640   -3.37591484266994    5.16089601536373
H         2.84625886512039   -3.76544702085395    3.69080358877774
H         3.89681419325993   -1.71421403853607    5.31576495897087
H         4.96240889987908   -2.34683109917363    2.94276112772895
H         5.75375312505492   -0.95183077232762    3.67953418721382
H         3.23212139850559    1.88231673819626    2.00512572422633
H         0.65092943723069    1.06738888294378    2.81400066844939
H         0.88491363479979    1.38715706277843    1.19125680012811
