32
 energy: -49.315965122073 gnorm: 0.145056728910 xtb: 6.4.1 (79825abcba525fcdf90b791dcacef51065a7a4e7)
C         3.48884909902734    0.37923809812121   -0.43318043215937
C         3.06425504504776   -0.86638207444890    0.33524156462727
C         3.09240275573028   -0.72060300469173    1.88091546604639
C         2.14214581430387   -1.76983465252907    2.53337950862972
N         2.08558546030550   -1.65568523845235    4.00848036785300
C         1.54490606561872   -2.90556403151522    4.52366013259965
C         3.40242702171461   -1.29568140909887    4.61196671947013
C         4.55029731308333   -1.66617174445724    3.63210053311187
O         4.44714608238254   -1.01624552315791    2.33297258294657
C         3.35777232406929    0.19179980591235    4.74395868000564
C         3.05565529527069    0.98486188826761    3.67651678368932
O         3.14553648138611    2.25783993186975    4.13502437660406
N         3.62839359988470    2.24605626463431    5.45545951330213
N         3.69678827460531    0.96265312708598    5.81350839914636
C         2.70573156111498    0.79765322129875    2.24776362927996
N         1.30727896997139    1.11971389550530    1.90436869572885
H         3.86030966028752    0.10710223165773   -1.42738359299305
H         4.19927203447092    0.98277035784766    0.13676566987498
H         2.64095110202027    1.02763243508416   -0.67285082829651
H         3.77375367605275   -1.69032334557815    0.19992217964860
H         2.09463936964743   -1.25534953892678    0.00033739728346
H         2.57536817756772   -2.76571817252118    2.37026287833488
H         1.11321852300009   -1.72271354727374    2.15906393591242
H         0.51431027070518   -2.91472410699315    4.14926319911428
H         1.42003898162524   -2.73735297395042    5.59787228916270
H         2.21237443676873   -3.74303563458939    4.29610154848689
H         3.43565834737106   -1.73367158367408    5.61661243214419
H         4.49311326862137   -2.75911160352920    3.57843845113863
H         5.53152856664758   -1.40846941433247    4.04658103824741
H         3.40027882962669    1.46579688522195    1.73101017223191
H         0.73683954537674    0.71035413779391    2.65316351224768
H         1.04073029025791    0.65471987107602    1.04052775341809
