32
 energy: -49.308917951231 gnorm: 0.150822456953 xtb: 6.4.1 (79825abcba525fcdf90b791dcacef51065a7a4e7)
C         2.96259362676535   -1.81286115583951   -0.35704157786712
C         2.75207921820018   -0.52405808991138    0.42844707186727
C         2.95874030999852   -0.41379840017492    1.96346681803555
C         1.96528663898418   -1.22200506887067    2.85196915467455
N         2.60085758942067   -1.89300900268851    4.00866919326469
C         2.96151670896495   -3.30160354473748    3.93298699172813
C         3.74721702576758   -1.07895533154994    4.50971498032843
C         4.85905698809752   -1.01032009849140    3.42615227096559
O         4.28794358363513   -1.00129991429153    2.08655314441075
C         3.28759908440486    0.31544391229099    4.78615374262646
C         2.89443844753004    1.24855683029686    3.87271004812073
O         2.22306252149274    2.23595083474287    4.51542957106210
N         2.31431586068935    1.93401411860757    5.88559228143356
N         2.92282038020631    0.75455317305979    6.02195422315486
C         2.91947529371922    1.13603712276930    2.39435225257628
N         1.89138168857642    1.98913701775777    1.76780862002464
H         2.33601596725483   -2.60922343681147    0.05971777132787
H         3.97235446352257   -2.22915692400597   -0.38656066519928
H         2.58062823299138   -1.78824877107492   -1.38187561011779
H         1.70582837368035   -0.25084267694197    0.25155341753875
H         3.44508530120777    0.16436853486047   -0.07097499205569
H         1.52409014893819   -2.00276567817702    2.21806761814186
H         1.18930795993810   -0.54266808870349    3.22262030165233
H         3.44715905884765   -3.55985153243606    4.88158814320918
H         3.75519492065113   -3.61129608464711    3.24597612920714
H         2.08742330506535   -3.91081370167391    3.68103595699366
H         3.96379793764086   -1.52719736677885    5.48666150641434
H         5.48351811558269   -1.90538714284202    3.52398098747081
H         5.46583515193522   -0.12367398256102    3.64225011422508
H         3.91230133877456    1.54053783622317    2.17866353814129
H         1.07590711546289    1.37846622071096    1.64229915765976
H         2.17337889202543    2.20947754922480    0.81627488675481
