32
 energy: -49.317482249523 gnorm: 0.140829715812 xtb: 6.4.1 (79825abcba525fcdf90b791dcacef51065a7a4e7)
C         3.08594384715335   -1.58258491296019   -0.54105109997781
C         3.08761009306133   -0.27744184630278    0.24566414367293
C         3.12205287021767   -0.31798126714824    1.79754102841351
C         2.30979819763673   -1.52599277745592    2.35479783390492
N         2.32822968109943   -1.76908203032206    3.81518119914972
C         2.03115407861002   -3.14003116655332    4.20529134287987
C         3.55000169948622   -1.16124617654924    4.41989510357651
C         4.72503240521499   -1.20407029615886    3.40378685799609
O         4.52333754669720   -0.43234638547100    2.18537022588352
C         3.42942007590165    0.29200872313417    4.74474358503579
C         2.98735541536685    1.23910898895715    3.86882447119034
O         2.82428278606126    2.40518958599112    4.54146426554104
N         3.24790179824020    2.16948052836696    5.86124719316759
N         3.55625738723934    0.87582718422050    5.96791632765024
C         2.57803957157239    1.04531794667275    2.45682770679782
N         1.10913080815244    1.13450069199108    2.56483841547081
H         3.33903293811357   -1.39818108203805   -1.59101392764505
H         2.11591302953541   -2.08363577611541   -0.49887602072250
H         3.85455800609307   -2.26407888535234   -0.16477146248925
H         2.23025190682203    0.33861517156214   -0.04757559272448
H         3.92631590017280    0.33886354579156   -0.10125267166548
H         2.71367429455608   -2.41332044100527    1.84922257248516
H         1.30907172148419   -1.39439614276913    1.92788711850546
H         1.08659373437435   -3.20209064004091    4.75877037047341
H         2.79435624845025   -3.38510753709622    4.95046147305213
H         2.10950178297340   -3.82642754944507    3.35595203597705
H         3.83022694750099   -1.74306978580039    5.30601462780747
H         4.98512104464375   -2.20793245875921    3.04983513169005
H         5.64507833214960   -0.73876263024279    3.77530216261445
H         2.91619435144174    1.92651342933001    1.90456702599705
H         0.70360032885315    0.34781263119952    3.08477797924749
H         0.62450360685149    1.20174618130307    1.67371365626802
