32
 energy: -49.318771348314 gnorm: 0.146553715990 xtb: 6.4.1 (79825abcba525fcdf90b791dcacef51065a7a4e7)
C         3.71914850025837   -1.52121991011994   -0.39708964965661
C         3.03055356963280   -0.32593643075029    0.25056497210047
C         3.08804365598732   -0.33566396145464    1.80225820315187
C         2.44268978406138   -1.65843306617932    2.31546858405676
N         2.39690961395546   -1.72574862215320    3.79382053198847
C         1.81160678687147   -2.95350004397924    4.31342463327786
C         3.62959454913726   -1.16766754289535    4.42382336424880
C         4.74603148346777   -1.15045341103435    3.34295367241700
O         4.47216180148888   -0.22865282226508    2.24930986463591
C         3.38307473573406    0.26140463493387    4.78298484244612
C         2.79765014029593    1.11327543156581    3.89346331234788
O         2.70986401087121    2.32310659952723    4.49958464174834
N         3.27481023818417    2.18390903909131    5.77954503177938
N         3.57078113448475    0.89728427494897    5.97189469822444
C         2.36720196197975    0.92986725451427    2.48637231726735
N         0.90831453029849    1.09418624729759    2.33818484243320
H         3.10481057321335   -2.42830543243322   -0.38079338222016
H         4.67238383911619   -1.76395119231353    0.07853037366680
H         3.82231707534299   -1.32603176089676   -1.46855871556184
H         1.98270839501692   -0.36458809753110   -0.06740576762948
H         3.39165556176182    0.66532990422709   -0.05044574215126
H         3.04096239679625   -2.44897821174757    1.84304834404545
H         1.40503295124541   -1.71189393067641    1.96699455339216
H         1.74108389502030   -2.80847778632048    5.39803503604541
H         2.43496312504496   -3.84893610813427    4.22717135045324
H         0.83233233810221   -3.10610581816338    3.84824869967989
H         3.96359045349281   -1.74017641628879    5.29728374859326
H         4.81791770754564   -2.19667534714794    3.02527584179604
H         5.69388733488965   -0.86519907146605    3.81329248814598
H         2.74420468311741    1.73335356590790    1.84752593922906
H         0.49557489636396    0.25012678436448    2.75156099356985
H         0.69268515406420    1.36111515115950    1.38124088054302
