32
 energy: -49.316369527973 gnorm: 0.143683256294 xtb: 6.4.1 (79825abcba525fcdf90b791dcacef51065a7a4e7)
C         3.98516803381322   -1.25156884177956   -0.47211790957286
C         3.02127202213953   -0.31968906618410    0.25233128776006
C         3.02945641437072   -0.42160142124852    1.80175004832844
C         2.46064887233550   -1.76090731905620    2.36059018820151
N         2.33992216540425   -1.73849500547427    3.83608144086622
C         1.84990280584507   -2.99305814041586    4.38915805940810
C         3.52300606045756   -1.17310037052917    4.54918144354080
C         4.68179067598308   -1.15948772539325    3.51378781969733
O         4.39221444134878   -0.37805141245636    2.31951791966424
C         3.25421257817177    0.28218649255716    4.75389214413521
C         2.82337235108747    1.13838897636796    3.78386722015198
O         2.86577509657919    2.40559220067906    4.26467790327197
N         3.32095190434464    2.33214692901642    5.59293189504252
N         3.51791339093307    1.03876489807680    5.85440759129098
C         2.29838215526121    0.87007855779014    2.42327026689179
N         0.82567808991641    0.93727829105186    2.36050302369498
H         3.69204214557438   -2.30216064564441   -0.57611249705923
H         4.94087863215558   -1.17966498022320    0.05251298991069
H         4.20354753026445   -0.92619405042257   -1.49350410746435
H         1.98833926180296   -0.60374753559234    0.02224531843025
H         3.16259319204816    0.72372836760715   -0.05575867916549
H         3.00745889493240   -2.57808424692844    1.87141405396953
H         1.44109548551531   -1.86013312453791    1.97111740488289
H         0.85887910298993   -3.20680916300425    3.97134568693998
H         1.88035303989813   -2.98382533490201    5.48314436603243
H         2.39854523658040   -3.86898208353996    4.02804263949238
H         3.82002558782411   -1.73017954896616    5.44567176533986
H         4.80925443785926   -2.20710193369760    3.21895798310013
H         5.53736459898447   -0.78144856919266    4.08483861745868
H         2.64482153373422    1.71314843882963    1.81906919951441
H         0.38399064731012    0.56114950923658    3.20732624164491
H         0.54093439946555    0.41937024093653    1.53335062125611
