32
 energy: -49.315032285980 gnorm: 0.150149858804 xtb: 6.4.1 (79825abcba525fcdf90b791dcacef51065a7a4e7)
C         3.82176539786186   -1.42492538290788   -0.26468361274417
C         3.15370898369852   -0.16442214999776    0.27118420310160
C         3.01921875263181   -0.33394414786995    1.80882079624574
C         2.36442177443893   -1.65333775053295    2.31874828353267
N         2.25464363413966   -1.75592776857391    3.79169625440715
C         1.74958772077346   -3.02774564855034    4.28902830217570
C         3.48609332205013   -1.16803259922054    4.39649467384465
C         4.68197698539200   -1.13298490457950    3.40470792743874
O         4.39701643959122   -0.25266734511792    2.28015637944657
C         3.25729688384453    0.28898774451305    4.63473858038796
C         2.86142092307464    1.24125325831934    3.74247910970390
O         2.99158943833156    2.44177937768085    4.35938599370300
N         3.46003642292986    2.20193980916656    5.66317784868545
N         3.63533610834705    0.88624189723456    5.79812031974910
C         2.26861697477649    0.95433181541234    2.41391265328584
N         0.82022720410544    0.78109161806745    2.63632605587108
H         3.19560265980416   -2.32067343433822   -0.18698897701786
H         4.78291688222069   -1.61916082185541    0.21724056467103
H         4.05032831475959   -1.30860953917035   -1.32817679356400
H         2.18547507670329    0.03636601148357   -0.20081798662022
H         3.80076812087162    0.68744141074527    0.02776277635374
H         2.98452093679151   -2.44058613620877    1.86953827374286
H         1.39253536509785   -1.66885306001273    1.81256650387102
H         1.54692448060088   -2.84990430296221    5.35189457906101
H         2.44123554206668   -3.86782557507650    4.17194925572707
H         0.78428324090626   -3.38257824486784    3.91361293258402
H         3.55662882511867   -1.75160342132908    5.32208775209109
H         4.92590986352506   -2.07575679961927    2.90236833237093
H         5.55905040103799   -0.71724495081040    3.91355158319660
H         2.44374462002835    1.80586917658670    1.75054215628426
H         0.79506650109018   -0.00572481069771    3.29508024024671
H         0.55220570901298    0.51483228137230    1.69252561764463
