32
 energy: -49.315033439042 gnorm: 0.149832531403 xtb: 6.4.1 (79825abcba525fcdf90b791dcacef51065a7a4e7)
C         3.70948795306071   -1.45041596621353   -0.37214223064306
C         3.05511174065919   -0.26842952017031    0.33285557351714
C         3.06515359615886   -0.37954043877847    1.88163095001060
C         2.32693231356515   -1.69175667607848    2.28499494891611
N         2.31410891676987   -1.72952412116906    3.76504929897545
C         2.02868059762184   -3.09281119467081    4.18921955754061
C         3.50363779057646   -1.07254955341877    4.38252453854825
C         4.78908200944420   -1.21118346650977    3.52030599176658
O         4.45207971781120   -0.44621907257003    2.32781421632758
C         3.26708807381159    0.37770908209463    4.65235852601848
C         2.79073426253840    1.29825518929010    3.76616651542190
O         2.69288180425825    2.49728527724141    4.39189222854396
N         3.24629858685926    2.28299221852005    5.66650870148121
N         3.55714404991628    0.99588305845000    5.82998823173480
C         2.34867752195846    0.96871000238538    2.38964368534063
N         0.88772620335440    0.88413182281776    2.57880131834975
H         3.20769187510194   -2.41892811496197   -0.26886727576450
H         4.62157050691600   -1.67361257563571    0.18649824847958
H         3.94611819320944   -1.15961968184568   -1.39987360539770
H         2.05481078116905   -0.15709921229300   -0.10025227527403
H         3.58676692244610    0.64586741080820    0.04128235848105
H         2.93695732871351   -2.48368476603474    1.83025104923323
H         1.25894140054737   -1.67121420155201    2.04005141548600
H         2.88910920177737   -3.75737315095498    4.04637460419855
H         1.18681480995687   -3.48242189460069    3.60845798979203
H         1.85440427682389   -3.09460683993277    5.27008965068347
H         3.80578327580200   -1.55174069055750    5.32131987080641
H         5.07026017262393   -2.24445502986910    3.28802194469487
H         5.69380744510862   -0.67869687304589    3.83486800647134
H         2.61582464409469    1.77063615304802    1.69581888018566
H         0.73724754447524    0.10571125580439    3.23078891290052
H         0.42125925090125    0.62222123157298    1.71433602501199
