32
 energy: -49.319660233537 gnorm: 0.144435878015 xtb: 6.4.1 (79825abcba525fcdf90b791dcacef51065a7a4e7)
C         3.70433489361640   -1.23653183781995   -0.33632024120407
C         2.78124417315712   -0.20566303770059    0.30206454677233
C         2.92678232377922   -0.35482942838006    1.84080418841402
C         2.17213231322759   -1.59890998628813    2.39968839817806
N         2.23837434880526   -1.77086890722887    3.86876763905139
C         1.94025278034433   -3.13429525865098    4.28365737670615
C         3.52001300601530   -1.23634035728918    4.41608088260407
C         4.57742518104053   -1.40453269284401    3.28976037704524
O         4.33831103919725   -0.48992784075532    2.18201487222306
C         3.53123292940500    0.23102421290055    4.69667240994569
C         2.96077720121054    1.13472364320768    3.84958210822296
O         3.01120527523749    2.35935544877200    4.42968114607286
N         3.65275825207449    2.21436082361501    5.67234970249869
N         3.91171452680327    0.91300318937331    5.81167092400393
C         2.39033906410117    1.01826443594901    2.48581274210035
N         0.92906486879658    1.22019573590972    2.52065947381063
H         3.71072352329912   -1.16095592639165   -1.42935650414585
H         3.32636964419575   -2.24692967120509   -0.16303150638796
H         4.74432620932264   -1.13329031498508   -0.01298236684590
H         1.71511504893631   -0.28037892608968    0.06047587514638
H         3.23324876508177    0.77874062850561    0.12813258337011
H         2.52985786998824   -2.49769092425560    1.87978659742603
H         1.14265296040890   -1.50427316558633    2.03604014314759
H         0.96486305796179   -3.48974253053280    3.93058970009623
H         2.01902457343080   -3.20447690086428    5.37300949727067
H         2.62331229088485   -3.90390294671197    3.90977326556365
H         3.83390443232448   -1.81417426142877    5.29348208537581
H         4.53349078631138   -2.45366392961011    2.97661409959346
H         5.53420173912088   -1.00628007859448    3.64612091411943
H         2.83238886334647    1.81862114749312    1.88592349256527
H         0.44236580409292    0.39454352523615    2.88820902150036
H         0.48007181965523    1.49584190707464    1.65122676062428
