32
 energy: -49.306835425516 gnorm: 0.151538197936 xtb: 6.4.1 (79825abcba525fcdf90b791dcacef51065a7a4e7)
C         4.07340240438961   -1.30747066715073   -0.37178595621412
C         3.02648306439010   -0.40979075142887    0.27663732062699
C         3.02402320534052   -0.42007704762857    1.82938963855445
C         2.33916090043508   -1.71403285477694    2.36439113226096
N         2.40272817281160   -1.66730597365260    3.84287937549656
C         1.88146173489069   -2.84232009738296    4.52666623954843
C         3.70187572335883   -1.08860105705897    4.29585449361873
C         4.82798826763606   -1.25239382765501    3.23753059053423
O         4.45521427878156   -0.40965180641527    2.10987676878539
C         3.43567595536912    0.34617233637116    4.61613444777914
C         2.77771240055653    1.20741856900404    3.78849126024573
O         2.49206335205992    2.35156998831127    4.45789627354549
N         2.97233480762636    2.11021150600147    5.75709764914566
N         3.54260862093188    0.90776959378801    5.85155226141524
C         2.33460686681582    0.91555953409172    2.40382340646237
N         0.86388380363186    0.89561953302094    2.52167450822594
H         3.77292111398448   -2.33258202994846   -0.61538088223205
H         4.94023242734075   -1.29906067408075    0.29328958650327
H         4.33767404688501   -0.77408245533761   -1.28963433309553
H         2.04787305158411   -0.63047277037271   -0.16404480777588
H         3.24997705530627    0.60712014521703   -0.06912807757540
H         2.82474423863781   -2.54267686879533    1.83182137897380
H         1.26362672528880   -1.73740887113375    2.15533680339800
H         1.19301304010501   -3.33378924953122    3.82889756480823
H         1.44642912399998   -2.62793357359580    5.50778985100858
H         2.56190141262956   -3.66499947193704    4.76926900820583
H         4.06093126507822   -1.58801917828024    5.20355123503660
H         4.82230038002679   -2.31282347393399    2.96162521237052
H         5.75703885137186   -0.76196608523809    3.54956422988699
H         2.56469368277649    1.84222476566428    1.87072154483660
H         0.51881988371088    0.26088626188366    3.25086226609559
H         0.48444318690519    0.88930199142930    1.57855536219676
