32
 energy: -49.316662710572 gnorm: 0.140542196733 xtb: 6.4.1 (79825abcba525fcdf90b791dcacef51065a7a4e7)
C         3.68009771501605   -1.32835816139852   -0.46695596694267
C         2.99237877673435   -0.21330843817078    0.31152258407777
C         2.99198099919188   -0.29865341083621    1.86196371164871
C         2.22952229196914   -1.57389784786126    2.33312500363832
N         2.24571720046163   -1.63247840321721    3.81246868863205
C         1.85829084039450   -2.96354684822822    4.25755182236777
C         3.53060341625485   -1.19970596414966    4.43668470928308
C         4.67176694980907   -1.31915996802370    3.38859903626132
O         4.38633442306334   -0.43480200755522    2.26734216396795
C         3.48375066326856    0.27266723023594    4.68555869885354
C         2.81906477375318    1.17171009830973    3.90480974049337
O         2.93382036053277    2.36175829626042    4.54465140110627
N         3.63318282422337    2.15567521361452    5.74684136284480
N         4.03865381946209    0.88478216072712    5.76744642457562
C         2.30899133357095    0.99964661456685    2.52312653383047
N         0.83905659627775    0.94661751130199    2.40568472154420
H         3.55567567587171   -1.10355985731706   -1.53206895660680
H         3.20639935974528   -2.30803672579616   -0.36882202799435
H         4.72462013662738   -1.50324209874893   -0.19277237171488
H         1.92737749113387   -0.22813993321216    0.05436282246825
H         3.43188728338787    0.72084849336252   -0.05968374795986
H         2.75216996473520   -2.40202470473077    1.83601540970630
H         1.19174609123606   -1.58252888648236    1.98103130150328
H         1.13709028768998   -2.90785603505618    5.08165919144745
H         2.68983863412144   -3.58930163184493    4.59634042647004
H         1.30049094822727   -3.54644079540543    3.51745078517492
H         3.80588509773749   -1.77111362710208    5.33109288921472
H         4.66861709137247   -2.33815713802172    2.98573179043908
H         5.58945327118124   -0.97585028994358    3.87952635800580
H         2.50024185429230    1.88226323534533    1.90647661618217
H         0.39653007788461    0.46893548247309    3.19919614488642
H         0.63294207729492    0.51943984422348    1.50650461627730
