32
 energy: -49.311030654340 gnorm: 0.155742744026 xtb: 6.4.1 (79825abcba525fcdf90b791dcacef51065a7a4e7)
C         3.94827465022409   -1.26677066265123   -0.37761468527075
C         2.92665938220009   -0.35937662829124    0.29711518602046
C         3.03514727712454   -0.31893044268876    1.84558091528314
C         2.29846577685195   -1.60143000767560    2.33759703743100
N         2.25732367147489   -1.69507290339542    3.81465155074467
C         1.93239637199559   -3.01348140515388    4.34016335719079
C         3.52867483805936   -1.19413157059506    4.41514652107637
C         4.65824278116461   -1.30250197108046    3.35338422892226
O         4.44484366358896   -0.44037598781640    2.19927101509489
C         3.41100791643426    0.27249159759859    4.67435157020242
C         2.85478761084417    1.16722963962275    3.80848947058469
O         2.84787161527919    2.39031269699987    4.39398151368900
N         3.37983923222020    2.23476449603320    5.68613243880875
N         3.61768231548746    0.93188717267484    5.84719701265311
C         2.29331747818951    0.97492091595350    2.44959362322575
N         0.81802173671231    0.98619586859687    2.47582630685465
H         3.91912798195821   -2.23273728507259    0.13866020266556
H         4.99153660918412   -0.95922446994811   -0.27364200518900
H         3.60111778893970   -1.32135703864469   -1.41361206493026
H         1.96064396220455   -0.59508114097779   -0.16314174393064
H         3.26109983588901    0.62584865943414   -0.05086723530755
H         2.91860810046747   -2.43391391208549    1.97917454564813
H         1.25620472923069   -1.63664720389867    2.00073567778214
H         1.59775553024475   -3.03871221174539    5.38408077371654
H         2.74081450640929   -3.74880005068259    4.40003914373552
H         1.12848068529818   -3.44225207129487    3.73309589449760
H         3.76608319021566   -1.72136414689888    5.34676650946396
H         4.87450793080051   -2.35589215618484    3.14299013990513
H         5.61380370684857   -0.89941567443904    3.70756513055324
H         2.62030957814410    1.82890340747623    1.84989697971163
H         0.46804054522794    0.33556191207863    3.18846846122467
H         0.33439335909088    1.04573380798453    1.58361129105181
