32
 energy: -49.312847237393 gnorm: 0.154405337221 xtb: 6.4.1 (79825abcba525fcdf90b791dcacef51065a7a4e7)
C         2.96237434413435   -1.50211081755824   -0.52116313778691
C         3.03818243673741   -0.20761167982639    0.27936618661859
C         3.10603947105883   -0.27814763445670    1.82906671731056
C         2.41024862338350   -1.56541576806908    2.36609602089964
N         2.47105679413979   -1.69478409362598    3.83977098483382
C         2.04519817852769   -2.99677124590535    4.33314232761974
C         3.74541817666648   -1.21464161350549    4.45078366108283
C         4.82074302970822   -1.25784114882287    3.32970502832108
O         4.50635584418200   -0.35774709495259    2.22890118725930
C         3.45666054760403    0.22798992551612    4.71049416688964
C         2.90545671099978    1.16017063136692    3.88171927700010
O         2.64309944998998    2.26252106507744    4.62655020961031
N         3.21109477786665    2.07201051210510    5.89852734710888
N         3.60124781317638    0.79679973968888    5.93875846130169
C         2.54587423197332    1.09907257136478    2.44443129691520
N         1.10418199914080    1.23183012508951    2.15945454892672
H         2.81719290686301   -1.14639227095330   -1.54725644245431
H         2.11316544821187   -2.15931586628115   -0.31938041506957
H         3.82878408393788   -2.16652917508954   -0.45282182579748
H         2.23569357087447    0.43294092188150   -0.10310320853072
H         4.04070419168590    0.19116704581699    0.08052778020593
H         2.70177510765286   -2.46295822333462    1.80439995063961
H         1.34267414606131   -1.45116480534760    2.14642496394047
H         1.03473059586350   -3.22696118064474    3.97487913068657
H         2.06064468008757   -2.98092583426022    5.42736754720891
H         2.63786775773622   -3.86931642528683    4.03977685887935
H         4.04260027970285   -1.79210815588748    5.33422460669503
H         4.87463452780948   -2.26376422335190    2.89856509249236
H         5.75107636558399   -0.98893123360105    3.84272227569659
H         3.16768016818388    1.80964909884514    1.89281152736178
H         0.62528884457094    1.05784142508462    3.05055471393477
H         0.80094058225890    0.50955722218007    1.51149211742481
