32
 energy: -49.310812308782 gnorm: 0.152736782923 xtb: 6.4.1 (79825abcba525fcdf90b791dcacef51065a7a4e7)
C         3.04721761069347   -1.91281971052842   -0.11449697741102
C         2.59139576773756   -0.58634407119624    0.48133094238739
C         2.97425543432276   -0.40680710810186    1.97543153513025
C         2.02523787925682   -1.32222828148946    2.80666818719856
N         2.57818148376884   -2.00784859753475    3.99676475649873
C         2.83087936806925   -3.40063347427401    3.65583155955454
C         3.67832299070561   -1.12614625551008    4.48682582883017
C         4.84770354891781   -0.78074982117688    3.52336464448107
O         4.33284658734147   -0.90159457216357    2.16649451012783
C         3.10633985761921    0.22880043764905    4.74944918467840
C         2.86555106860626    1.22110738310138    3.84556753128521
O         2.48559871829495    2.35093787995645    4.49201952663829
N         2.49202242368890    2.01128633100835    5.85636345806846
N         2.80515254992284    0.72054060498592    5.98255950959392
C         2.98554390229734    1.15334046681961    2.36913987115768
N         1.97351045504661    1.99959662556050    1.70811671011215
H         2.74334319881534   -2.79444726344622    0.46071950409048
H         4.13040349941088   -2.05258640413753   -0.14554685275024
H         2.70469572329319   -2.08788554017573   -1.13861554403073
H         1.51362295490389   -0.40678393642063    0.39921653532804
H         3.10906732064077    0.23273803048270   -0.03318992531097
H         1.66532722156375   -2.05567193724644    2.07277626388620
H         1.21145569465046   -0.66576468670402    3.13505518836813
H         3.12594443811387   -3.94831508720110    4.55880781278013
H         3.67812898556282   -3.43462705736692    2.96385538709616
H         1.87602345944775   -3.86236739198883    3.38434012050871
H         4.06933913478508   -1.53081975015662    5.42788823727606
H         5.66041550292903   -1.51539436157695    3.54490177765823
H         5.15499801729368    0.23447607213465    3.79887480868641
H         3.98146888704279    1.49583516147305    2.07473063701478
H         1.05945098039732    1.87794167646427    2.15907743017266
H         1.85363212482084    1.90815484270932    0.70275289728696
