32
 energy: -49.316172559037 gnorm: 0.144690219535 xtb: 6.4.1 (79825abcba525fcdf90b791dcacef51065a7a4e7)
C         3.84623287519595   -1.55153351808374   -0.30877096937197
C         3.13768479490043   -0.33147974898111    0.26720689032135
C         3.03301139962476   -0.28969582713288    1.81589962667076
C         2.33848890120440   -1.56358012975267    2.38549764095050
N         2.42221430888665   -1.69356949950269    3.85799365560981
C         2.11595761822467   -3.06636653299703    4.23426022041425
C         3.65174701845984   -1.10440101716809    4.46544738340255
C         4.76706853655688   -1.13007575324359    3.38359445778343
O         4.40757185322559   -0.22678513620406    2.29934084469148
C         3.30266886700447    0.32870543470770    4.70286390868808
C         2.65589442844618    1.18555144665542    3.86194055502348
O         2.63248151043193    2.41682586792316    4.42956371845995
N         3.19678341698080    2.25426998592483    5.70705256180779
N         3.62811824859041    0.99899673793235    5.84210730859077
C         2.23174502666266    0.94758202077527    2.46112040308397
N         0.76073341349153    0.85193785511652    2.39562361040406
H         3.11968568251209   -2.26298790806581   -0.71674477719440
H         4.45176341529373   -2.15638975503151    0.37039925110183
H         4.51951087077332   -1.29688438085182   -1.13256626107137
H         2.13564035296579   -0.23950976680723   -0.16641426831829
H         3.79582118842904    0.47416649642851   -0.08122051576077
H         2.75220768897246   -2.41636349717220    1.83081762389877
H         1.25785821665293   -1.47354727903077    2.22689332858504
H         1.09875913575525   -3.23945155508282    3.86313560136072
H         2.02154620708074   -3.35781163427470    5.28495748308115
H         2.74061129692658   -3.73802920182757    3.63648713679751
H         3.91786172014489   -1.63006131076964    5.39017271159093
H         4.94276385600924   -2.12203273095376    2.95252639361195
H         5.70837341948703   -0.70986060181746    3.75559404904771
H         2.48373698711452    1.85182302630478    1.90014425181578
H         0.31225025011966    0.26014361994849    3.10436379712275
H         0.45132270179162    0.50839258033117    1.49023393256737
