32
 energy: -49.309420874853 gnorm: 0.151316822006 xtb: 6.4.1 (79825abcba525fcdf90b791dcacef51065a7a4e7)
C         4.16060479839317   -0.05271858353432   -0.19270064069871
C         2.95774384261669   -0.78745878398221    0.38661313799137
C         2.96060320346554   -0.58629820607922    1.92631372251492
C         2.03026784647237   -1.69996697647790    2.49535030176078
N         2.01895357474458   -1.75939875230650    3.97470541509419
C         1.80624476192273   -3.14816338118066    4.35684302720405
C         3.28491692106025   -1.21958525065888    4.55246695230802
C         4.47376650977538   -1.55358951168023    3.60902386572923
O         4.33080099730665   -0.76572298944185    2.39263374970190
C         3.36979995838662    0.26907769426808    4.64570735250746
C         2.83185287194866    1.10363938743475    3.71094851353833
O         3.16423284209888    2.38463161219612    4.00652154959206
N         3.82906235089037    2.30866833670909    5.24307729465095
N         3.93296008481415    1.03344524375060    5.62124626851075
C         2.32851523217891    0.83371549055408    2.34251085861391
N         0.86816419383717    1.03679096059665    2.28379102928096
H         4.17258575144901    0.09833060616522   -1.27783722310182
H         5.03075677464871   -0.70274021404698   -0.07396599969921
H         4.38653546588985    0.89378560974895    0.30717261765238
H         3.09348773206472   -1.87003536425625    0.28571513882346
H         2.00350800176530   -0.44589757156935   -0.03336418033421
H         2.28588863440638   -2.67970810590956    2.07009983019521
H         0.98405855082572   -1.50419603242383    2.23430668942107
H         0.82832387115624   -3.29253848023522    3.88227877879866
H         1.61245592836956   -3.15670157478511    5.43396488249764
H         2.62857095589546   -3.73487958935626    3.93470638760542
H         3.48270865381455   -1.74056267002252    5.49677287390485
H         4.54158080216148   -2.57115253246547    3.20823228672891
H         5.43449571458756   -1.29629772034165    4.06926259126941
H         2.77132868743349    1.64906333464370    1.76374481041091
H         0.40034351151621    0.51583513525371    3.03440348633791
H         0.61853941941065    0.64471647869707    1.37965946031190
