32
 energy: -49.316016064210 gnorm: 0.149445458302 xtb: 6.4.1 (79825abcba525fcdf90b791dcacef51065a7a4e7)
C         3.43965013927099   -1.39203301469841   -0.39389667035035
C         3.02959474029618   -0.13128607324318    0.35756445134565
C         3.01565401062421   -0.36437838651835    1.89269483236447
C         2.26021322881542   -1.65761361957292    2.32447775390139
N         2.26761350327461   -1.76547004727972    3.80111715697070
C         1.92811512425715   -3.10007175440488    4.27389672061528
C         3.52879270140514   -1.20472123081098    4.36932311059694
C         4.72719064360713   -1.24973856605515    3.38097962016660
O         4.42725586603402   -0.37067892048469    2.25934198645147
C         3.34030631690747    0.23319035742150    4.72834877612242
C         2.82619291656876    1.16461025221083    3.87523754304269
O         2.97842241758144    2.40077505273370    4.41143126681032
N         3.56115976751955    2.18291039563831    5.67230040284596
N         3.77586571361043    0.87758008356151    5.84554757540771
C         2.40023342709119    1.00844042663092    2.46350144460828
N         0.92739697728229    1.09788051606957    2.47163148317756
H         3.66416567865270   -1.21846277509354   -1.45217213039253
H         2.67586664545514   -2.17313241493613   -0.37631834530864
H         4.36179558350692   -1.79151949919820    0.03836072814479
H         1.99105230351235    0.17482098231307    0.18931778212788
H         3.68011631068349    0.70776116630761    0.08110022526137
H         2.88169962756477   -2.46456349889754    1.91379638741405
H         1.23261399264714   -1.67847717131614    1.94417729602634
H         1.03204368269356   -3.10727052066368    4.90586887762264
H         2.77480443318475   -3.53359303491454    4.81518685948788
H         1.59835678736990   -3.76622699702211    3.47006076121952
H         3.90285670301941   -1.79614910145727    5.21344508976276
H         4.72647372059570   -2.23786689937614    2.90740907914719
H         5.67923310877790   -0.83340484857004    3.72926216820414
H         2.77468004457994    1.85864036071454    1.88661687616355
H         0.67820647510922    0.37783309383535    3.15945852055370
H         0.51300875219757    0.99380420454372    1.54916775000265
