32
 energy: -49.320936427984 gnorm: 0.145292994135 xtb: 6.4.1 (79825abcba525fcdf90b791dcacef51065a7a4e7)
C         3.81598556295325   -1.40391891413896   -0.38671632546478
C         2.97193490352500   -0.31876608841044    0.27081231331342
C         3.00412414161423   -0.36434683159132    1.82259769139985
C         2.40037094352548   -1.68582531625776    2.38718718042351
N         2.30572589281741   -1.67767551576207    3.86472824191982
C         1.96731729224861   -3.03654024635751    4.26336046166891
C         3.57477138121092   -1.11862082567801    4.41686193345456
C         4.68553710297535   -1.14086590715439    3.33025634652168
O         4.41521911507976   -0.28586097915195    2.18279285586361
C         3.35452706002695    0.32371192563628    4.73808606213010
C         2.75575713956027    1.18863617322712    3.87031017973785
O         2.73272451255798    2.38376343949779    4.51056109151605
N         3.36241676051143    2.24007503367327    5.75943262687557
N         3.75028824242712    0.96832048777258    5.86987055434565
C         2.34703902175585    0.95711029073172    2.46383425864076
N         0.87187806718592    0.93561579612908    2.43643069398130
H         3.43264760690601   -2.42249487367642   -0.26008367844025
H         4.82266181817433   -1.43035864337229    0.03718737906906
H         3.80547365182162   -1.14351830989783   -1.44919886781653
H         1.95249787230803   -0.56909203048471   -0.04329581364407
H         3.21401687929432    0.67535474218547   -0.12508051448852
H         3.00989871306966   -2.56147208739493    2.12681964042320
H         1.43214301716288   -1.84084923857019    1.89777306319147
H         1.68833518553989   -3.07243164939020    5.32320264363859
H         2.72304995444121   -3.81697917049484    4.13068895511120
H         1.06051053721258   -3.33536559203013    3.72758015097112
H         3.79259441671340   -1.73682524744376    5.29585518267960
H         4.81659882135655   -2.18629191884454    3.02930045335893
H         5.68190207362672   -0.78006484661159    3.60971795428349
H         2.56641995505571    1.80182220021742    1.80491106367701
H         0.41463901170147    0.27531336645526    3.07565160014522
H         0.48564657131411    0.84430569727041    1.50049452563498
