32
 energy: -49.316100482295 gnorm: 0.154303320917 xtb: 6.4.1 (79825abcba525fcdf90b791dcacef51065a7a4e7)
C         3.87031612190557   -1.43629302564190   -0.33389144656549
C         2.92755639369200   -0.40475591759400    0.27393861001502
C         3.02604532387771   -0.35005593981906    1.82263466406759
C         2.27157310087863   -1.56115320816597    2.45000990088599
N         2.33214125519127   -1.73725326206052    3.91884343770076
C         2.01386349817834   -3.11076452684346    4.28230933067653
C         3.62685950800566   -1.16742776001258    4.39515610470530
C         4.76582849671670   -1.24830632476263    3.34101411415289
O         4.42251368674468   -0.35506072620123    2.24327783186889
C         3.36686626033632    0.27515585212242    4.68389875104233
C         2.75258440440564    1.14014975495850    3.82710371837883
O         2.75874516526779    2.35121465683401    4.43707485674401
N         3.25326746320863    2.16258402446950    5.73965114446435
N         3.52884318218278    0.86695782421951    5.89906012655525
C         2.41182697482571    1.02533752418920    2.38851697236487
N         0.94768404094718    1.19746656373356    2.32550994179453
H         3.73415360073929   -2.44153837279179    0.08014039057022
H         4.85953147685310   -0.98018010464806   -0.24901223308276
H         3.66437518286309   -1.49701540730342   -1.40659329262961
H         1.92799275475963   -0.77377199578461    0.01844199194013
H         3.11862650653916    0.59924410720278   -0.12491876675715
H         2.49192755264152   -2.41459399576749    1.79491039396751
H         1.21053300405619   -1.33090974165688    2.30099386301370
H         2.05329490530398   -3.02904160886375    5.37508158045398
H         2.76253059170019   -3.83226625613321    3.94062038190888
H         1.01359982808850   -3.34785469970624    3.90559131991425
H         3.95983753270768   -1.66221069343106    5.31524751526378
H         4.82742812991780   -2.28630870787002    2.99543676307727
H         5.73551707113304   -0.90951460307644    3.72303975286741
H         2.75437102941083    1.95973772116077    1.93529976415621
H         0.38065918911350    0.72063224498858    3.03599011063690
H         0.60280489066783    0.96832065409807    1.39704920438177
