32
 energy: -49.318588298532 gnorm: 0.143898520203 xtb: 6.4.1 (79825abcba525fcdf90b791dcacef51065a7a4e7)
C         3.32732484382441   -1.62486918389432   -0.26789548452313
C         2.87856329089469   -0.30799264034799    0.35401393813977
C         2.99135877809565   -0.30113344256334    1.90268490645845
C         2.04531363146283   -1.44498445277750    2.37827723072030
N         2.36017085599446   -1.88450196975187    3.75662441373129
C         2.23691014526713   -3.31347151836867    4.00721210643939
C         3.51979139625070   -1.17473587209490    4.37256473060872
C         4.71362406472189   -1.24123825696164    3.37991775667830
O         4.41252405245876   -0.45253754074899    2.19329748785101
C         3.23252561167180    0.24231383746088    4.74868271554121
C         2.95370309232291    1.26450325622486    3.89017171038720
O         3.03072418430694    2.43876900970546    4.56392879432071
N         3.47950261373339    2.11377390200399    5.85614197384028
N         3.55785853787352    0.78549211612558    5.95375495342137
C         2.57865580215303    1.15083580877905    2.46004985977901
N         1.15535570635681    1.48466844686389    2.25983642464603
H         3.48647679107078   -1.52452741075824   -1.34728558550198
H         2.55731160460522   -2.38670576225146   -0.12480413167636
H         4.24416334328867   -1.92435216282390    0.24834597136177
H         1.84250164228287   -0.06233394250320    0.09554358918528
H         3.59136133667351    0.45800260065182    0.02419385193193
H         2.12700414896962   -2.27735694464649    1.66655023348677
H         1.02978638879521   -1.03377106339061    2.35313995331555
H         1.15833375187973   -3.48826766920975    4.09942884871241
H         2.63280738216883   -3.49160046959774    5.01187819691592
H         2.65221788273468   -4.01986383695828    3.28113705094279
H         3.64454862089068   -1.70845094223871    5.32221549454390
H         4.94140212089082   -2.25025156730079    3.01842576490435
H         5.55708508438039   -0.76672466874581    3.89414505608915
H         3.15673079435171    1.80610593026252    1.80255738041397
H         0.58854815253139    0.96450865603082    2.93941954120922
H         0.78797105566750    1.19186149761361    1.35829251375520
