32
 energy: -49.304267367738 gnorm: 0.169080394781 xtb: 6.4.1 (79825abcba525fcdf90b791dcacef51065a7a4e7)
C         3.53221824804670   -1.59997025325506   -0.41635118595675
C         2.97374200837623   -0.38191755546037    0.30944080175535
C         3.05487560225993   -0.42171747511361    1.85959723204937
C         2.25092589776101   -1.66905458766567    2.33646161477073
N         2.52752264763290   -1.75795727292770    3.78826816209638
C         2.11652795619757   -3.00148970007250    4.42439067211782
C         3.73125885063233   -1.08807964642516    4.36285787410038
C         4.89090144958872   -1.21956827701109    3.33672590783023
O         4.46250110965672   -0.36615219953810    2.23721153452943
C         3.28752510963114    0.27907733492306    4.77028693099132
C         2.80404527721436    1.13736296394980    3.82728777008410
O         2.60209888586407    2.29183578315749    4.50933696998667
N         2.91485756429190    2.10635967400248    5.86750464213414
N         3.34339863184998    0.85035429832066    6.00463049777987
C         2.55904282604354    1.02169540892149    2.36940433090809
N         1.15175297676048    1.44166960836482    2.22633167468901
H         3.11347324667733   -2.54537301985118   -0.05393286863164
H         4.59431743411611   -1.64746149637247   -0.16439802046869
H         3.41417460340794   -1.53804454447275   -1.50217761474854
H         1.93830552804500   -0.21757964031354   -0.00906069574909
H         3.57715159644059    0.47867105638470   -0.00503521320007
H         2.63245848681632   -2.49795647813170    1.72537473625122
H         1.20299914151858   -1.36913440377781    2.22278963378278
H         2.16801296208221   -3.03697095060817    5.51913951627303
H         2.58681878551212   -3.91878866171884    4.05668474299410
H         1.06873401211213   -3.16734105270255    4.15369379531266
H         3.93768595463080   -1.75276449973726    5.21010908755570
H         5.09015630017284   -2.25468946517401    3.03757912818531
H         5.79338009954214   -0.75298360570051    3.74763999129209
H         3.05733869512027    1.76202272217824    1.73737371420294
H         0.41845193067184    0.89530008968333    2.69261500912769
H         0.90228579328656    1.37701978460670    1.24293178417087
