32
 energy: -49.315153273038 gnorm: 0.145163401889 xtb: 6.4.1 (79825abcba525fcdf90b791dcacef51065a7a4e7)
C         3.39225639670830    0.31393854732810   -0.59302139633012
C         3.18346334962754   -0.91810631830224    0.27921308140261
C         3.17760324963609   -0.70751936009201    1.81764422828232
C         2.24777599484092   -1.79963378098356    2.42780156349125
N         2.06534103120082   -1.68922462896420    3.89295649764677
C         1.37988137203455   -2.85428234629729    4.43399895868953
C         3.29485009436585   -1.28565890358441    4.63680618833784
C         4.54448283754204   -1.58108361261254    3.76150665046957
O         4.46853154235097   -0.94749112643941    2.45247278654624
C         3.33649168170479    0.20484615159081    4.72995609612115
C         3.19833319724251    1.04718938870221    3.66645976232281
O         3.39699168015056    2.33239468433099    4.05059916114254
N         3.58913606412282    2.28095484809191    5.44245880923781
N         3.56674770008582    0.99899365325165    5.81134185267750
C         2.76126650107478    0.77787318951600    2.27531966945363
N         1.29889702538946    0.94697169807125    2.37628519528435
H         3.55155897379769    0.03233168880681   -1.63982656716912
H         4.26653402620374    0.86910477150581   -0.24485537033166
H         2.48038114804762    0.91343779873639   -0.51639043573612
H         4.04915808848404   -1.55483856387838    0.06538250020507
H         2.26404162026447   -1.48515643748738    0.08756525427322
H         2.65334134299076   -2.76795857985888    2.10540979031942
H         1.27880237961529   -1.74602903506757    1.91864483262072
H         0.31271023604612   -2.68003629774966    4.25187608753842
H         1.59753509094125   -2.86767602631761    5.50650348964918
H         1.53550267893459   -3.81775241153737    3.93785073956693
H         3.32483678971781   -1.89267697159214    5.54943018671652
H         4.68386378343241   -2.65547707138332    3.59743711573941
H         5.47870474037518   -1.16544094279476    4.15582880226873
H         3.15319050035519    1.56370962572051    1.62362752135259
H         0.90742090007980    0.41581933442802    3.16260181972308
H         0.77036046894983    0.75128106973701    1.53021007964774
