32
 energy: -49.317940062651 gnorm: 0.152361590075 xtb: 6.4.1 (79825abcba525fcdf90b791dcacef51065a7a4e7)
C         3.65843597999290   -1.36962185114404   -0.46001642834261
C         3.18240294628229   -0.13354180068543    0.29352239010431
C         3.08340858305655   -0.41984262958917    1.81647465115384
C         2.36949891592973   -1.72975419771994    2.26819282177253
N         2.25584465232844   -1.62634234738781    3.74078930555720
C         1.85171412593779   -2.93176186965468    4.24328286943012
C         3.48430409686312   -1.16706008518127    4.45340239641630
C         4.70615540331875   -1.24286527468130    3.49614589713145
O         4.43907782075458   -0.38121059811636    2.35290554961803
C         3.31579289399643    0.28703598032849    4.75210775452862
C         2.93192375221011    1.15085813290826    3.76919872966478
O         2.89693944148863    2.39979312952281    4.29618867665590
N         3.35215993864579    2.29213988590793    5.62209360572938
N         3.62127953510568    1.00826321208970    5.86547761807616
C         2.31757008532234    0.84298129202971    2.45519313064168
N         0.84708757339706    0.75712100740186    2.54249723753769
H         3.10914971549674   -2.27384076522402   -0.17514179241710
H         4.67401704552395   -1.56173820293050   -0.10578923719036
H         3.67155351584577   -1.17945452198394   -1.53725941186949
H         2.18814203904115    0.13187558407748   -0.08274575576958
H         3.82287161851912    0.75532833956350    0.23589597519751
H         3.08591712676985   -2.50369679394707    1.96187527403618
H         1.36602012298879   -1.83392878362857    1.84017192721921
H         1.87323915689142   -2.80489642968708    5.33223947848416
H         2.51518096296163   -3.79574265501360    4.13760666393683
H         0.82198484775620   -3.16994201632367    3.95765469890149
H         3.68156112630018   -1.75083980493365    5.36034430298826
H         5.00024319527724   -2.25770749430201    3.20584465984801
H         5.53633837541005   -0.74501961453720    4.00992142019583
H         2.48778777264415    1.70098367891386    1.79891282074301
H         0.66901694411541   -0.10888942453824    3.06402097435723
H         0.32129420767665    0.88167333899307    1.68138350245696
