32
 energy: -49.311823330631 gnorm: 0.152071671499 xtb: 6.4.1 (79825abcba525fcdf90b791dcacef51065a7a4e7)
C         3.64055263947893   -1.24650056918696   -0.50263668689610
C         2.92935955736597   -0.15905573922574    0.29359834325594
C         3.06441141509415   -0.37565398017424    1.82526338792929
C         2.26521342050388   -1.62241681330524    2.31152423165639
N         2.20734632593302   -1.57487955630739    3.79022071897201
C         1.74940001321464   -2.80252776956558    4.42512734481519
C         3.55436030253825   -1.24415309561971    4.34162217743390
C         4.63814260383567   -1.46683467217243    3.25036791537966
O         4.47052193397295   -0.47174905867065    2.20037475735899
C         3.47035432088000    0.22066218577590    4.62318112023281
C         3.12325933465560    1.23612297112214    3.78174258320319
O         3.09089116081440    2.41500461115645    4.45104915023957
N         3.41327358380904    2.09249431534005    5.78104745090921
N         3.66244294835733    0.78349664558568    5.84768207133861
C         2.43879971430329    0.94493228262307    2.49895177379321
N         0.97502347279242    0.98856941536610    2.67997028867077
H         3.61931273824840   -0.96440356270683   -1.56115024287816
H         3.02628300599718   -2.14703382933233   -0.57681995791489
H         4.69148007386757   -1.36311405320468   -0.22202851078898
H         1.88634788064250   -0.23927594791977   -0.03239277569083
H         3.26640705655854    0.84153821273832   -0.00443146315646
H         2.84946324545691   -2.47282440690646    1.93531724696964
H         1.28179687022485   -1.83135527029765    1.87533560972649
H         0.76353108202760   -2.99852641407138    3.98691319297828
H         1.55708508789188   -2.58930902981746    5.48123872186002
H         2.37858304113080   -3.68764050481799    4.28598791629949
H         3.81661050728013   -1.82185117159328    5.23590539406814
H         4.67673492576226   -2.49873390250092    2.88381400074451
H         5.65650583661098   -1.21965405389074    3.57108183594679
H         2.69644917423976    1.71188080765558    1.76325298601873
H         0.66984684654398    0.62392193300635    3.58967884505511
H         0.53215867403770    0.34235961531080    2.03207178069320
