32
 energy: -49.308695161634 gnorm: 0.148343458302 xtb: 6.4.1 (79825abcba525fcdf90b791dcacef51065a7a4e7)
C         2.96159238131262   -1.38594636639344   -0.54664547649292
C         3.09292458429279   -0.14987301814475    0.33494208033994
C         3.08146112758208   -0.34791871132301    1.87500640869603
C         2.37597686650649   -1.64162591770187    2.38313852540322
N         2.38261769126910   -1.71267866329364    3.86200941538176
C         2.02254821774700   -3.03576568860625    4.35163384761288
C         3.66158720076047   -1.18809919384011    4.42496909148421
C         4.79314029322272   -1.27693245221786    3.36350627949768
O         4.50210318610101   -0.49231077865026    2.17168249160901
C         3.51355005153852    0.26902555450380    4.71973809357830
C         2.87283597654470    1.16979715947730    3.92114534594945
O         2.71293520522070    2.31979481788837    4.62165806031500
N         3.26492389097771    2.13179717215245    5.90103454084382
N         3.82796632888515    0.92261399641350    5.87171371199477
C         2.47702279855795    1.00530973197420    2.50160136879730
N         1.05183369508431    1.18120150909033    2.16217403247775
H         3.07398473929148   -1.03562958430429   -1.57869533714226
H         1.99039483227109   -1.83813061526992   -0.33194749925751
H         3.77320951303593   -2.07895648585132   -0.30622348337103
H         2.42944120395370    0.60494814465229   -0.10165117424413
H         4.06141545366084    0.32958162403922    0.14583963506817
H         2.75047419933940   -2.57261635774339    1.93695338827707
H         1.32794866218051   -1.62555441117122    2.06313460513647
H         0.94661556590202   -3.18922843116426    4.20602211921878
H         2.40937159033219   -3.34078238101010    5.32895211560337
H         2.42774442876522   -3.83321576556484    3.72032962219909
H         3.88017053262540   -1.74698814396250    5.34263852849283
H         4.81885104892229   -2.32720013158343    3.05214807144492
H         5.77553602124701   -0.99992926245887    3.76248901197527
H         3.01631855719906    1.78707338978824    1.95952049720791
H         0.48131975967846    0.61577125159915    2.80129272097196
H         0.71210094830300    0.78311721501237    1.29062405220118
