32
 energy: -49.314382532909 gnorm: 0.144432703476 xtb: 6.4.1 (79825abcba525fcdf90b791dcacef51065a7a4e7)
C         4.37428987118154   -0.32481573555526   -0.46831483179011
C         3.06893462533769   -0.65571662890717    0.24503946198365
C         3.00332102771501   -0.62704714612800    1.79617598324033
C         2.14236583762550   -1.72166975803973    2.49627746744298
N         2.12622835515894   -1.63754370686136    3.97438912285624
C         1.58152210645129   -2.85648710932153    4.55526213458280
C         3.47985139939574   -1.21723981731864    4.44227745368700
C         4.64540511786913   -1.45711532799565    3.44280194819784
O         4.39649630030551   -0.70576626702140    2.22038766475912
C         3.41274162245340    0.26715161016674    4.59750188527961
C         2.94951488691141    1.12831451669125    3.64698950158765
O         2.84706502263716    2.36254531542397    4.19922067978035
N         3.32217350908985    2.28700709949548    5.52035833376034
N         3.61694039681067    1.00201145132555    5.72505105021540
C         2.42363874930659    0.78566329706366    2.30353362587775
N         0.97377313459753    0.76956608306922    2.57729154076005
H         5.11167621246050   -1.05456657983852   -0.11588627280382
H         4.77941997316932    0.66080795110236   -0.22705555732615
H         4.17111845274038   -0.44679950040451   -1.53631738856507
H         2.80964242550153   -1.69119196026271   -0.00222000120202
H         2.31114085871471    0.03084929933663   -0.15243616012439
H         2.35626665719160   -2.74795138601998    2.16906946677705
H         1.10806881390742   -1.63506026599201    2.14449291461992
H         0.69576759625545   -3.05256371308341    3.93932579726301
H         1.17773383188522   -2.62892672912443    5.54672055638202
H         2.30465402339552   -3.67771832317392    4.59152698467464
H         3.82313196137411   -1.52683916305662    5.43654070664710
H         4.73985827992605   -2.51630815299287    3.17849848640987
H         5.56836354731509   -1.03189267006454    3.85311009743288
H         2.62194382711307    1.53063682866212    1.52794642193296
H         0.79210138671914    0.24014522189798    3.43774441668103
H         0.41207991036731    0.41029008143569    1.80988663410658
