32
 energy: -49.307485024121 gnorm: 0.147487214890 xtb: 6.4.1 (79825abcba525fcdf90b791dcacef51065a7a4e7)
C         3.68477818971122   -1.23963537691373   -0.60345981891666
C         3.00273507434121   -0.17997371087636    0.25342782213245
C         3.03984691335526   -0.37530559095519    1.79343425348283
C         2.32713932086699   -1.66989489456973    2.28908641362412
N         2.29164098665231   -1.59662869274197    3.76743807516966
C         1.46155367165219   -2.61799471510738    4.39010000254953
C         3.62161088106420   -1.23903352984293    4.34291700179638
C         4.72525022132207   -1.34617257250937    3.25410642987448
O         4.45902042898659   -0.48272759292871    2.11201967006239
C         3.49584148528841    0.18931196649332    4.76247328795331
C         3.01184296011762    1.07774377144137    3.84809441021359
O         3.02390748402514    2.29649490465220    4.44246892302507
N         3.53024110899535    2.12446751726875    5.74280412616258
N         3.79359426124790    0.82949310028393    5.92634383545027
C         2.38959197246897    0.90879641226956    2.51277055722524
N         0.95154468189708    0.76905355040041    2.81244497139723
H         3.08470268489902   -1.37907148164159   -1.50952149712382
H         3.79319260535792   -2.19907682617312   -0.09208039671955
H         4.66402831995328   -0.86621938281283   -0.91717594180476
H         1.93289638270634   -0.02786291264874    0.07208191381626
H         3.54047741246226    0.77550912190244    0.21473945950576
H         3.00829222942420   -2.40251843870350    1.83591305266540
H         1.28506836447926   -1.59364703085170    1.95848346789798
H         0.51173944177181   -2.78153160504927    3.86713416090152
H         1.10915307710793   -2.27258030921947    5.36699365570910
H         1.99289928926371   -3.57415118490206    4.43584119715070
H         3.76597696394852   -1.87522161288411    5.22420916285369
H         4.73660923751412   -2.35315090713183    2.82221202759690
H         5.76261761215558   -1.25257606682861    3.59488192425432
H         2.45909012250474    1.80022154549509    1.88318558941392
H         0.85956904991132   -0.04586391914571    3.42979432836955
H         0.43571607542297    0.75359716337231    1.93656212062899
