32
 energy: -49.314523527676 gnorm: 0.149715790100 xtb: 6.4.1 (79825abcba525fcdf90b791dcacef51065a7a4e7)
C         3.80616676956617   -1.46031029542212   -0.47427514751781
C         3.05853864263598   -0.34634803585797    0.24854042072275
C         3.08276201443131   -0.39430878527804    1.80039885922739
C         2.31225140064581   -1.64181516958408    2.32919545242978
N         2.37722831036851   -1.59612268113018    3.80765475023866
C         1.92923156072726   -2.90081931381252    4.27349484714888
C         3.62898033751715   -1.08253262468512    4.43790258367730
C         4.79208197592071   -1.11995697685858    3.40795063170653
O         4.48210139538376   -0.35311365423770    2.20935100975939
C         3.29023362580256    0.33400651256102    4.77059433358484
C         2.73419616437674    1.15914466166449    3.83805814865102
O         2.65652846924272    2.38866030956805    4.40466199983950
N         3.15032350914955    2.28103970384758    5.71669213032354
N         3.52170030630239    1.01670317904029    5.92533745915015
C         2.36016056132022    0.89978009732268    2.42679748350543
N         0.89659292400585    0.78807248716971    2.57780745959904
H         3.29836875224946   -2.42803761240448   -0.39600757014565
H         4.79175586149650   -1.67977039481546   -0.05685222293082
H         3.99433584689538   -1.29797874960439   -1.53965254151436
H         1.99941594026803   -0.26923712713973   -0.02144450614778
H         3.64490014645539    0.55714306916422    0.03998572491746
H         2.85552247993725   -2.53511073105078    1.99311182431504
H         1.28500057722870   -1.67375472588987    1.94872268864194
H         2.37381046166266   -3.69808585267598    3.66595857116073
H         0.84189537985798   -2.84269444549499    4.16331302638124
H         2.31385964381135   -3.19965640686034    5.25401167434299
H         3.90569705840842   -1.77054422097821    5.24556625402979
H         4.96075961611560   -2.17140280159460    3.14973231520371
H         5.67114914933672   -0.65918280871770    3.87265206381926
H         2.53256543358854    1.79045787530343    1.81621117168202
H         0.79951299513512   -0.00041087255305    3.22783800422306
H         0.52191118322335    0.60802229378008    1.65007671106306
