32
 energy: -49.314000468237 gnorm: 0.154730936488 xtb: 6.4.1 (79825abcba525fcdf90b791dcacef51065a7a4e7)
C         3.79483339924984   -1.57227393190439   -0.20865739654120
C         3.03691438208374   -0.36943832249117    0.34003864787769
C         3.04717458228689   -0.31361707257116    1.89178938512364
C         2.29583348708627   -1.59884753039852    2.35358355110510
N         2.35999650325255   -1.62575374018385    3.83253955560453
C         1.84004886313577   -2.93499947035639    4.20060402535602
C         3.67680142250246   -1.18219645730738    4.37765601955993
C         4.81718534818829   -1.22130055422482    3.32266672464185
O         4.45992146500094   -0.29903171643097    2.25376054812266
C         3.45787368315054    0.27957428162197    4.59517206470782
C         2.97406016724653    1.24417767572988    3.76143401394166
O         2.69391309306380    2.37650226553706    4.45291038052370
N         3.18798055535170    2.13085476784959    5.74612090196524
N         3.52609828927849    0.84313351689060    5.83243907714091
C         2.35325157689846    1.03420571254317    2.43126945645950
N         0.87895718017414    1.01565953402845    2.48979191109614
H         3.34221968337090   -2.56962508104006   -0.17845291694027
H         4.74487735621640   -1.50602354044963    0.32689639346582
H         4.00059616925809   -1.36590491423627   -1.26310589702283
H         2.00106803386203   -0.30345559996487   -0.01102755241514
H         3.57682296678758    0.53362356944631    0.02925095487156
H         2.67717781086761   -2.54264639825123    1.94140297120893
H         1.29792573647751   -1.55600325068503    1.90261968869384
H         1.90102710843712   -3.13206369390485    5.27755899358804
H         2.33140569801343   -3.76371024729505    3.68134935725177
H         0.77708319442689   -2.94132923859003    3.93845990415132
H         3.83317589805819   -1.62420633849255    5.36883057898687
H         4.95958177183861   -2.21684276603098    2.88759646498143
H         5.75625541267816   -0.86272540351139    3.75923358986661
H         2.57332477009081    1.86347036480898    1.75323264740657
H         0.54367653144106    0.26108943934840    3.09961244137005
H         0.48933256488611    0.97381231084800    1.55174591885242
