32
 energy: -49.319040112808 gnorm: 0.143193356518 xtb: 6.4.1 (79825abcba525fcdf90b791dcacef51065a7a4e7)
C         3.65756668334052   -1.40391744755114   -0.42760912652188
C         2.99330905336350   -0.23349194247311    0.28736502070601
C         3.06500105645538   -0.42014277369068    1.82722649510114
C         2.51404509455896   -1.78771611379099    2.33296883095688
N         2.41031871852058   -1.69598229951894    3.80707108203228
C         1.81680660470497   -2.95202759714583    4.24300107775332
C         3.62060795175398   -1.10909153904763    4.45408685866714
C         4.77008338055497   -1.03993616451856    3.41056837993640
O         4.47065424977757   -0.29516865350818    2.19547938930997
C         3.35599673952169    0.32157287360536    4.79349298525957
C         2.81310705650063    1.16117177883524    3.86613176123636
O         2.70993764323992    2.38931990850821    4.43163080576257
N         3.21717525222819    2.30876472608781    5.74046986038476
N         3.57900281068807    1.03851198686709    5.92898840719980
C         2.34873462045036    0.85890542290990    2.49069635242872
N         0.88142307918193    0.77153203660620    2.36156251680076
H         3.03991819779622   -2.30642806461152   -0.36078294748091
H         4.65596808387549   -1.60241757693444   -0.03064207764353
H         3.86828866134093   -1.26091702753963   -1.49153358625630
H         1.91921311542616   -0.19300586677025    0.07462656077182
H         3.54688019348710    0.66002618810222   -0.02695232015030
H         3.24159469739039   -2.56489992743871    2.06328470960827
H         1.50693053839814   -2.02952134164118    1.97481464866633
H         2.42229046275652   -3.84906173103281    4.06663861986518
H         0.85363296089243   -3.12530831706392    3.75301248086888
H         1.57896433348249   -2.79643830364780    5.30029888130272
H         3.97858302026845   -1.72656044421308    5.28645619613753
H         5.07306153237896   -2.05589653999764    3.13362808770218
H         5.65585679918133   -0.66424273933123    3.93523899707788
H         2.67937778758387    1.70395149656271    1.88043556669859
H         0.53861451357804    0.07341845348489    3.03148037396887
H         0.68408386557202    0.62147142107039    1.37564778138256
