32
 energy: -49.312271331763 gnorm: 0.152074014829 xtb: 6.4.1 (79825abcba525fcdf90b791dcacef51065a7a4e7)
C         3.19493555399187   -1.52179459157395   -0.49301563986363
C         3.02305048777249   -0.22848344845514    0.29446381301142
C         3.13160417815995   -0.30031939138206    1.84178643854877
C         2.27605929781012   -1.50598209672057    2.33575506992159
N         2.32982533851981   -1.73131826505598    3.79811087911595
C         2.12822739157809   -3.12089178552346    4.18331872194026
C         3.57928571673374   -1.19770175119360    4.41615002376516
C         4.73171321736497   -1.38639711251498    3.39081498635287
O         4.51841826503646   -0.54916561529252    2.21849831584458
C         3.39962903502132    0.25927254874733    4.69357680282738
C         2.93014207557676    1.24078496337531    3.87146384098761
O         2.78941463485685    2.41039446508965    4.54302196630994
N         3.26713580486793    2.09833088980222    5.82802687393191
N         3.65416880504649    0.82390651315499    5.90579841892893
C         2.53053664626798    1.06056607039203    2.45489548076698
N         1.07198810598525    1.27748344686014    2.50870828776045
H         3.27177238969495   -1.20246472112891   -1.53829327641494
H         2.23893258896574   -2.05076875915738   -0.49894471957136
H         4.03460401343079   -2.16960656505612   -0.22452979526531
H         2.09509418348819    0.21192100692927   -0.08700684246935
H         3.89832110601789    0.37508078210577    0.02386704058540
H         2.70771649197593   -2.38992754315301    1.84750805889301
H         1.20920290873458   -1.34006416026724    2.14783860235325
H         1.03405702087789   -3.19283215273515    4.18265165407236
H         2.45415869921696   -3.24824636668335    5.22031828607398
H         2.63351834558444   -3.77813649166305    3.46822008049238
H         3.87036799633381   -1.63761415875998    5.37739967683809
H         4.84417607435152   -2.45862706109421    3.19500332899424
H         5.70290734184961   -1.04543388989127    3.76704018770999
H         2.88011178230125    1.85023665005955    1.78402769702422
H         0.52907666840653    0.90501178706248    3.29622479558971
H         0.59701287266460    1.11678111377461    1.62436553734750
