32
 energy: -49.312920340453 gnorm: 0.154004992150 xtb: 6.4.1 (79825abcba525fcdf90b791dcacef51065a7a4e7)
C         3.83826960993666   -1.28204865480144   -0.38485593446005
C         2.83036023372158   -0.40515735600748    0.34828964033318
C         3.10573016713508   -0.45225199474557    1.87574017359775
C         2.30858541248031   -1.63750382999978    2.49969765710988
N         2.44037705268315   -1.77317605236582    3.96815797263308
C         2.06774259826206   -3.12060277686155    4.37500703385102
C         3.70145045467024   -1.12423930060990    4.43339464952911
C         4.90425504721345   -1.12216050184260    3.44939068575106
O         4.52688943891929   -0.47042754211481    2.20294893522176
C         3.25947181029920    0.27771652774917    4.70021105269548
C         2.75771487977509    1.12794622163987    3.75946464392588
O         2.53680115295888    2.29639668890966    4.41115595271597
N         2.87128891108450    2.15886463817429    5.76984711488440
N         3.38721617675559    0.93398509579067    5.88599188858784
C         2.45316710379783    0.95015011787362    2.31916312185044
N         1.01310375161780    1.19195644053566    2.10688958759717
H         3.63222467172036   -2.33102243378233   -0.14468870321923
H         4.86735477165383   -1.06563790920625   -0.08830810511634
H         3.75370268016149   -1.24000039602021   -1.47474973978310
H         1.84027972000915   -0.76344999299844    0.04506395402582
H         3.03467467224770    0.62643138475032    0.03573351700463
H         2.52990469511781   -2.55206149418498    1.93341621049561
H         1.26028821099348   -1.34298656034761    2.37577640166471
H         0.97228415699095   -3.16798178871155    4.36448606836572
H         2.44324102103053   -3.13258003201718    5.40295449513609
H         2.44818498030156   -3.86456634621607    3.66759101928754
H         4.04128946169920   -1.58274089509761    5.36963097042950
H         5.20612870824411   -2.15247401346817    3.23031644765575
H         5.79839681402501   -0.58156112797786    3.77996921151408
H         3.07041278274763    1.72691639858272    1.85928496987736
H         0.56055276156731    0.42639908219615    2.61951982330383
H         0.75312945065237    1.19413925382515    1.12408878763943
