32
 energy: -49.316328819619 gnorm: 0.140161581969 xtb: 6.4.1 (79825abcba525fcdf90b791dcacef51065a7a4e7)
C         3.46366679896373   -1.47020170380690   -0.54431860882460
C         3.19579975783936   -0.21936599217734    0.28392009479121
C         3.16566211521698   -0.38373306130348    1.82769041904988
C         2.53365968367639   -1.71811668641502    2.32726812831638
N         2.40935540728661   -1.72524031716514    3.80261534076051
C         1.94164513638101   -3.00039284297807    4.32718613698073
C         3.62425918815415   -1.13059236995592    4.43370395479544
C         4.87823466069078   -0.94732605469601    3.53427857292368
O         4.52976490905131   -0.22498827642521    2.31872328061454
C         3.27857216608224    0.29658872328069    4.70878740087070
C         2.74608795342328    1.17440681372226    3.81126283785460
O         2.58703068651704    2.37388008454738    4.42342750745486
N         3.07436587553034    2.23476614929501    5.73491160105009
N         3.54036463330662    0.98999248365027    5.85060139590399
C         2.32384896616374    0.84949416222219    2.42743651586895
N         0.85125352944244    0.75593611274250    2.42270537301013
H         2.57041456862103   -2.03975805492591   -0.82393766324007
H         4.01014295358387   -2.26980433852761   -0.03856181877165
H         4.05509578618844   -1.25950420350516   -1.44020166020055
H         2.28115338668105    0.25631301589499   -0.08720030231854
H         4.07167742616421    0.42669521121631    0.14588284267912
H         3.10592012837966   -2.54193178990249    1.88014478263339
H         1.49969669897376   -1.78974398963713    1.97115860343417
H         0.89727764101428   -3.11471629950550    4.01316170862994
H         1.88968011843862   -2.97747062453935    5.42016038672019
H         2.65770916840594   -3.76585203929329    4.01098977453243
H         3.82234904958235   -1.57618812379938    5.41577195384389
H         5.32444126115476   -1.91919392765562    3.29544876748541
H         5.65188105314919   -0.46562761104821    4.14293054505065
H         2.63677456039148    1.64302430039783    1.74316062943083
H         0.57135337082166   -0.09602768946743    2.92218891097425
H         0.60819389264989    0.57463207526304    1.45237569780334
