32
 energy: -49.307358218240 gnorm: 0.155560087384 xtb: 6.4.1 (79825abcba525fcdf90b791dcacef51065a7a4e7)
C         3.49520911086458   -1.58375147521063   -0.32390214508658
C         2.95335590227554   -0.29431173224585    0.28112871997876
C         3.09991632234819   -0.35859331094045    1.82564792296671
C         2.34077005891825   -1.60971749592476    2.36227615381282
N         2.47228566449989   -1.77954233323804    3.82720443537666
C         2.15773290176428   -3.13327906380210    4.26124914510102
C         3.64901774363250   -1.10127396703814    4.44617443429462
C         4.78871294355158   -1.24524825547579    3.39957360439749
O         4.50321260572921   -0.45274160916046    2.21163401096727
C         3.33168417626169    0.32604055652604    4.75291364705091
C         2.77026355165476    1.21540472570378    3.88487410972149
O         2.60086810270942    2.38781328144876    4.54483190648539
N         2.99772807318395    2.17096043620961    5.87611542680524
N         3.50361990537359    0.93902347931302    5.95614816786724
C         2.48335583023468    0.99139647379809    2.44739939725961
N         1.09391333460531    1.29115619130355    2.05128517444352
H         2.69660076319063   -2.32327780735302   -0.19817896824138
H         4.40955467147917   -1.93539564822735    0.15994604197867
H         3.70607704739371   -1.37851828471199   -1.37756346709141
H         1.87536150118848   -0.22597803949432    0.09717916289794
H         3.46100156662611    0.60780700667836   -0.08231138790813
H         2.67672742853653   -2.52839080074021    1.86303208862788
H         1.25783771010341   -1.54131432540081    2.20864524873427
H         2.45917385498636   -3.39436482128347    5.28269529547576
H         2.65272636171881   -3.80567482731881    3.55365892810346
H         1.06417862626030   -3.08056863728414    4.26528401960110
H         3.85417393970099   -1.54914694819495    5.42575263635899
H         4.87977736900070   -2.32749725346188    3.25427546566348
H         5.73015688649631   -0.89033251466313    3.83401286943608
H         3.02204682333091    1.74431627759961    1.86536006076000
H         0.62439986165583    0.48643884493155    2.48216487839179
H         0.90624802407998    1.53281587267125    1.08181565855715
