32
 energy: -49.314989286133 gnorm: 0.150566741807 xtb: 6.4.1 (79825abcba525fcdf90b791dcacef51065a7a4e7)
C         4.05749304297007   -0.17941797005438   -0.49482903600699
C         2.96809105406852   -0.88043569068403    0.30772909203102
C         3.08701424382857   -0.56974228894016    1.82446193115764
C         2.14780297759739   -1.60057036300117    2.52078104693973
N         2.23198277326355   -1.62765086610604    3.99872966175733
C         1.61159544964634   -2.75183371921484    4.68522355449334
C         3.61440349590674   -1.25583114298226    4.42126163394574
C         4.67359957537986   -1.68601428797928    3.36862059609866
O         4.46799465330953   -0.79241408790046    2.23725725953641
C         3.43438653651159    0.22295350851579    4.53442578366862
C         2.99653416417570    1.16497998191503    3.65095207862091
O         2.82186931291604    2.28791055297150    4.39074937640038
N         3.21852895458031    2.06962382957776    5.72185824993816
N         3.61943236688967    0.79753565452645    5.75454736263355
C         2.54591829249400    0.87947458766841    2.26738376458006
N         1.08546349129306    1.08914625742340    2.24683203151509
H         3.98311119669733   -0.52579154381111   -1.53163832018591
H         5.05200330637771   -0.39631875509666   -0.09772214941860
H         3.92446655890730    0.90541557298254   -0.44762451826508
H         3.03565057234935   -1.94096017089749    0.04070402314315
H         2.02042395749527   -0.46457649509560   -0.05641270668038
H         2.28564973547002   -2.63722088483825    2.18548028968921
H         1.13686651105688   -1.27097555746405    2.25545361231264
H         0.62578014647828   -2.93285629341067    4.24049478912426
H         1.49908282015168   -2.53634103714714    5.75233288053596
H         2.13086447588324   -3.70016531447888    4.51293750588679
H         3.80598421000527   -1.66729178052983    5.41938471915131
H         4.58495493593980   -2.73987773404419    3.08194808803239
H         5.70674953556010   -1.45456807824055    3.65155727116341
H         3.05658952837380    1.53536263125050    1.55684048498388
H         0.53722770280944    0.70464962737177    3.02482308429542
H         0.63923226651301    0.88540449305577    1.35640752610318
