32
 energy: -49.312663586614 gnorm: 0.149105232189 xtb: 6.4.1 (79825abcba525fcdf90b791dcacef51065a7a4e7)
C         3.34160842909481   -1.48387593711779   -0.49602937256362
C         3.00324090289052   -0.23247459561225    0.30510992856300
C         3.09310066511996   -0.29584754878483    1.85400008568200
C         2.24117452268128   -1.51162261173543    2.32907635563205
N         2.23658106221682   -1.72221037625208    3.79460813072132
C         1.96324185095559   -3.08884704838357    4.21595272146863
C         3.52471393941839   -1.24040592388947    4.37464983092469
C         4.76427205733820   -1.18995558231977    3.43872383054447
O         4.48763760488681   -0.35701818403894    2.27662814998458
C         3.33094009683945    0.20485657752209    4.69974101766090
C         2.95382528818608    1.16657390484140    3.80949466687623
O         3.05550903177482    2.34800439956293    4.46726615468899
N         3.53657256009119    2.06496049356049    5.75773228364180
N         3.67369197256359    0.74562176715092    5.90106421320518
C         2.46351639530469    1.07539385466093    2.41303032272974
N         0.99335549332867    1.14414929057655    2.51891906356380
H         3.04096960511851   -1.31797822452381   -1.53649804013898
H         2.89092208780807   -2.37393337620993   -0.05052957534116
H         4.41235901304586   -1.69086074683364   -0.40978204204763
H         1.95916240319321    0.07118143967622    0.16993612543037
H         3.56816365723542    0.61720653585505   -0.09802193646884
H         2.67107172042120   -2.39584724793180    1.83978316991968
H         1.26031616739034   -1.37738233431617    1.85905470832433
H         0.94711686472089   -3.46768375666396    4.05360304568377
H         2.07053162964965   -3.03205100760746    5.30364827499706
H         2.67052050307392   -3.85032506368972    3.87162183782689
H         3.75125713321434   -1.78408574328404    5.29949746987862
H         4.84892489359556   -2.25896570486702    3.21351631009254
H         5.57847693354628   -0.68954393307178    3.97508001394749
H         2.68817230631585    1.88775100893960    1.71628678562960
H         0.57665625316621    0.46548328494100    3.16656434924598
H         0.45250995261429    1.13480822956823    1.65817075134213
