32
 energy: -49.313435144895 gnorm: 0.147571998307 xtb: 6.4.1 (79825abcba525fcdf90b791dcacef51065a7a4e7)
C         3.51109325526552    0.18314150416933   -0.52463849827316
C         2.99109369942431   -0.87065766674102    0.44563458474350
C         3.10249150150439   -0.68268212929633    1.98297233921014
C         2.10031620839741   -1.75904396075863    2.49937771824255
N         2.01989523109827   -1.77613987611302    3.97768482278856
C         1.66342147056599   -3.09074007130199    4.49216919335621
C         3.28971717118106   -1.22159020011051    4.53256959147290
C         4.49882244765792   -1.61523245782034    3.63919551579869
O         4.49041227289374   -0.94448631680857    2.34659867664036
C         3.29366240040340    0.26472197103190    4.68382051811385
C         3.15287497549207    1.16374689403882    3.66814957477200
O         3.23266246577081    2.40472476532395    4.20887946007168
N         3.62299205777573    2.21688058599783    5.54648783982012
N         3.68313536395469    0.91169455471196    5.81643720095253
C         2.67745653999312    0.83604759623284    2.30234586792322
N         1.29451458349879    1.23080729919297    1.97227144367650
H         3.83517898740407   -0.27513060077338   -1.46561454411837
H         4.38507894849980    0.75665613680785   -0.20680132738823
H         2.78062276680461    0.94163344625040   -0.82110260377606
H         3.58296505180609   -1.78796846470765    0.35178329373578
H         1.96032076087056   -1.07510626499217    0.13048546332045
H         2.38715004663054   -2.78246329758941    2.22295080167899
H         1.13437734548230   -1.49154414500301    2.05617360932212
H         0.71243812155809   -3.40465426371068    4.04554495593911
H         1.58398189339513   -2.99117772215228    5.57918124247438
H         2.36832588906706   -3.91148415746842    4.32440590010343
H         3.40487736882057   -1.62011887612655    5.54754040389513
H         4.48642436978290   -2.70735135207267    3.55093579538495
H         5.39848529529212   -1.35904724614411    4.21015545507024
H         3.33565784969142    1.42280039906472    1.65555518431136
H         0.68331415902349    0.68941717402103    2.59436548615163
H         1.19389139666291    1.01688921556610    0.98353343674203
