32
 energy: -49.317882595137 gnorm: 0.137859586455 xtb: 6.4.1 (79825abcba525fcdf90b791dcacef51065a7a4e7)
C         3.80915295554896   -1.36459432272807   -0.38364954132780
C         2.89614892936376   -0.33242779810066    0.26702549157131
C         2.97447335818016   -0.35739313989119    1.81763622281404
C         2.29072202753569   -1.67574221637358    2.29094842616260
N         2.30965134835220   -1.71798007443960    3.77081643939078
C         2.03834590621905   -3.01009490335511    4.38463564080739
C         3.55792500077742   -1.16400734865007    4.37314303252985
C         4.73668008100563   -1.16960605921218    3.36046729739359
O         4.38452161738726   -0.37840100704727    2.18967411269621
C         3.23280158136790    0.23414263644311    4.78725371630175
C         2.72709105665370    1.13864663029443    3.90080926623546
O         2.85089311401300    2.38087453856290    4.43026540980219
N         3.38452127584388    2.20410637298867    5.71899843251519
N         3.62232964675191    0.90469907576952    5.90605003644041
C         2.37323709100909    0.98554358680860    2.46896565975749
N         0.90023255970921    1.03289938339173    2.39597315623914
H         3.73480860358097   -2.38459612909942    0.00947897836031
H         4.85835548483853   -1.15129837667682   -0.16577483879856
H         3.72969880660188   -1.41456124867825   -1.47359379262074
H         1.82566045443039   -0.47482173182207    0.08166840350378
H         3.14178638108118    0.69028850798176   -0.04494348866864
H         2.74172034499383   -2.61440272345348    1.94225143507421
H         1.26825377371946   -1.74122570004119    1.90198249525802
H         1.92216808066389   -2.87542701773991    5.46664854907679
H         2.89806983825561   -3.68255289732752    4.30405332807333
H         1.13687519277112   -3.44918667601383    3.94508520302762
H         3.74740906811152   -1.67347660335470    5.32539803489140
H         4.97085174546963   -2.18470471353629    3.02075342036801
H         5.63160652926585   -0.75131126038187    3.83497279203753
H         2.86807536637156    1.83656892295605    1.99279661997417
H         0.43671846069007    0.13713584707820    2.58684638762114
H         0.61774526190575    1.31416899156109    1.46078485821936
