32
 energy: -49.317273045272 gnorm: 0.148210273659 xtb: 6.4.1 (79825abcba525fcdf90b791dcacef51065a7a4e7)
C         3.76968787120270   -1.27351107786290   -0.45882264444152
C         2.94184339426329   -0.25953360629822    0.32146275473508
C         2.95347781095664   -0.47633885283734    1.85899707178477
C         2.16767984314088   -1.68797676835970    2.44554608530191
N         2.34723047168868   -1.79415809097761    3.91136967451685
C         2.17243384415702   -3.19056861733503    4.28476646555891
C         3.54686467467625   -1.12819433867051    4.49894117495019
C         4.67688463385407   -1.20077161144999    3.43461299819474
O         4.37043785238671   -0.48435466864093    2.20432244723457
C         3.28036863656927    0.31682763682915    4.76895530164763
C         2.86923544155257    1.17301834369929    3.79040466317216
O         2.81415025343861    2.40615822473988    4.35175357156282
N         3.26915227649120    2.32621291575385    5.67969209059297
N         3.56488673081901    1.04162686472451    5.88555674955760
C         2.36857746020322    0.91422374819821    2.41883758748654
N         0.90885216607662    1.08791806203774    2.29098933758082
H         3.48158547714784   -2.28914594551150   -0.16562709433629
H         4.82088087285944   -1.20002662230516   -0.17006010405739
H         3.85719093708723   -1.05697787151134   -1.52758113568393
H         1.89330243217604   -0.30947422863336    0.00738211842372
H         3.40294596972174    0.72495715796648    0.17390461713078
H         2.60260608148812   -2.56025618243463    1.93954171372805
H         1.09937845196658   -1.52249432859506    2.26562493994711
H         2.54333047834296   -3.36138702697929    5.30243115325339
H         2.60164198811160   -3.92496758931091    3.59610325373382
H         1.09960618493463   -3.40239858405971    4.33791247270640
H         3.97566932046385   -1.67568206907650    5.34666546854712
H         4.85975207231712   -2.25729517024521    3.20881521236061
H         5.61191978253791   -0.76408424665043    3.80343920261128
H         2.77685668392563    1.76693213885342    1.86925366720379
H         0.49359430497014    0.39018119336577    2.91899761679319
H         0.72447624119916    0.80456111489015    1.33223849367123
