32
 energy: -49.313665044105 gnorm: 0.144660206215 xtb: 6.4.1 (79825abcba525fcdf90b791dcacef51065a7a4e7)
C         3.62744679708393   -1.54397104507024   -0.38021124523259
C         3.04497392767219   -0.38260042714127    0.41619677305740
C         3.01662171218538   -0.35067844960366    1.96839804427595
C         2.24409192728534   -1.63568605826297    2.39447057236257
N         2.26203705688973   -1.83271208379260    3.86178458617451
C         2.14082893288328   -3.23366724697643    4.23937511187527
C         3.47634125626781   -1.16120362514480    4.41170450047910
C         4.71252390188119   -1.19388827054381    3.47053967681175
O         4.43915937466205   -0.38953309057196    2.28772004208612
C         3.30599764309592    0.29983663603644    4.67316326524997
C         2.71352040972810    1.21055894906008    3.84902130421712
O         2.63077442062891    2.38469080149331    4.52233284265932
N         3.34169800417320    2.23737946106335    5.72637845238949
N         3.73861467131322    0.96472781524882    5.77943877018437
C         2.42693834404817    1.08299340825885    2.39973629221714
N         1.00121249288730    1.36164023575352    2.14094185902806
H         2.86965123849541   -2.30699479014740   -0.59002415780980
H         4.49010478284632   -1.99726719994411    0.11388822813540
H         4.01841959521090   -1.11854985282162   -1.30915968810606
H         2.04023098029694   -0.09384382267052    0.08803508811374
H         3.78684607599681    0.38240544134735    0.15542332419091
H         2.65140794548839   -2.55113185692544    1.94488712134275
H         1.20770196025988   -1.49203321561708    2.06845889192183
H         2.19636146848043   -3.39058383833193    5.32320073396184
H         2.92933549788820   -3.90880260710968    3.89257813522194
H         1.15924116344548   -3.53520180509556    3.85961468509639
H         3.63673142243904   -1.71139215030781    5.34648806010845
H         4.88990308853092   -2.23395775902079    3.17480456526373
H         5.60338693022571   -0.82776236514928    3.99335344882237
H         2.96457464098155    1.84218686409998    1.82491588082755
H         0.36624015312423    0.92110993107287    2.81652560611823
H         0.71914141927631    1.13441305541998    1.19105105885028
