32
 energy: -49.315295693857 gnorm: 0.150704206639 xtb: 6.4.1 (79825abcba525fcdf90b791dcacef51065a7a4e7)
C         3.44312624220969   -1.34160543882118   -0.37842863956754
C         3.03408585200112   -0.09069114276704    0.38983008981600
C         3.00796460394757   -0.34811973542306    1.92090809021790
C         2.19049423209203   -1.60474317338783    2.34778552304924
N         2.20785658553825   -1.71753979478292    3.82397222047051
C         1.97552007450680   -3.10014377607387    4.21686834192211
C         3.49985913796731   -1.23805795816789    4.39729305879338
C         4.66424351914372   -1.36262124778091    3.37567667700092
O         4.41373403351779   -0.40813598867235    2.30470487886128
C         3.35415636603482    0.22578907208391    4.65794384149032
C         2.87805520240462    1.20452295853126    3.83632226762829
O         3.10283491756708    2.41674321498155    4.40092571213525
N         3.76353570291249    2.15361716792270    5.61380573768474
N         3.75181357849037    0.83387503577449    5.80910997029126
C         2.37953973689435    1.03545397289362    2.45005848059463
N         0.90610348137206    1.09645959904935    2.50081998631019
H         3.67367817507951   -1.16885412703573   -1.43553960524764
H         2.67611589163700   -2.11969685345456   -0.37072361912152
H         4.40489640353465   -1.76215267090653   -0.07032750269938
H         1.95573760071314    0.06605116091063    0.27504435969459
H         3.59928914148529    0.81009893851527    0.12013856693422
H         2.63883368329835   -2.50187192441533    1.90032114473194
H         1.16025409741594   -1.60574701575466    1.97411699763024
H         1.05330515661869   -3.47006660484328    3.75312120714657
H         1.69782009540244   -3.14600767089702    5.27450614738885
H         2.87328040408548   -3.69818793490814    4.02971815080349
H         3.71052609065597   -1.66764090619365    5.38386826689539
H         4.68979725782837   -2.37422136592121    2.95534422094483
H         5.61908449794183   -1.12706240636162    3.85921580512264
H         2.83123176363939    1.85797787094147    1.88856516630838
H         0.50405998021121    0.32989713615532    3.05255654983668
H         0.50177733934333    1.04803314335141    1.56933511524998
