32
 energy: -49.309215899490 gnorm: 0.151202619311 xtb: 6.4.1 (79825abcba525fcdf90b791dcacef51065a7a4e7)
C         3.68105289549769   -1.44673805159269   -0.36440594232756
C         3.03663333081790   -0.21124038705988    0.25251466748196
C         3.10732271691689   -0.34758711361309    1.79768916077698
C         2.34250183604098   -1.63280651206572    2.23683008177891
N         2.29570114982023   -1.73698195082277    3.71301058148471
C         1.85250754912772   -3.05607084091473    4.14140912327316
C         3.44459329648778   -1.12841697422593    4.44619930792544
C         4.72142877262236   -1.16889392052872    3.56129263644704
O         4.46219040966202   -0.43511360449948    2.33038255955474
C         3.21500682866748    0.30948779980344    4.78046894115657
C         2.82055754013516    1.21018075155430    3.83557935030746
O         3.07515588382809    2.43915024234299    4.34899399912560
N         3.62102217245211    2.26989742967998    5.63360377721770
N         3.59809144232593    0.96495620198467    5.91037628712428
C         2.34382373630018    0.90134545281388    2.46584400423223
N         0.86903906000600    0.88851574816043    2.51230231709442
H         2.90997105238875   -2.22314230109058   -0.30863822762925
H         4.50391608044562   -1.83162552504341    0.24267585377793
H         4.10608578528741   -1.29280731294853   -1.36061902121305
H         1.95888571631675   -0.07450785150446    0.10988524179473
H         3.63090427726046    0.67571438693714   -0.00000131727075
H         2.74593818750202   -2.55051152516382    1.78835572731575
H         1.28518108134676   -1.53708297035740    1.96492247655641
H         2.05871047854404   -3.08058219869481    5.21810044652623
H         2.37952818705195   -3.88322502191577    3.65573051798855
H         0.76537319815116   -3.02392417358760    4.01586584611828
H         3.54900618384993   -1.72654687416059    5.35921151442703
H         5.08478839323147   -2.18283552426768    3.35989905525054
H         5.50931829541873   -0.60029443444417    4.06818915322268
H         2.48451052587219    1.74658334048286    1.78641326101868
H         0.49890132568508    0.01178051729459    2.89701469732228
H         0.47954617573678    0.84332764964289    1.57435661206658
