32
 energy: -49.316124340599 gnorm: 0.148596843078 xtb: 6.4.1 (79825abcba525fcdf90b791dcacef51065a7a4e7)
C         3.52280133757290   -1.38396312128954   -0.42764027175991
C         2.95384688491643   -0.17328806056424    0.30234522047851
C         2.95764635502382   -0.30955926000509    1.84913782645162
C         2.24897348750653   -1.63932468711643    2.24800033281448
N         2.28145772060202   -1.70709331079037    3.72668349130526
C         1.86055926553066   -2.96733522012236    4.32214650513653
C         3.53636159233883   -1.18586242835617    4.34426332502239
C         4.69180723778246   -1.17986909901351    3.30507302738692
O         4.37978085464585   -0.31930351772684    2.17244593884828
C         3.34259902975840    0.24471137911297    4.72888121689337
C         2.99258608268085    1.20505838687374    3.82617477217280
O         3.16789524576245    2.38231861996628    4.47587159498954
N         3.71901935362484    2.13170114129999    5.74484436648473
N         3.78150860621716    0.80675606819253    5.88842742419001
C         2.32829913329842    1.01354471350980    2.51435365928778
N         0.87254146690192    0.89130586248155    2.72205560523699
H         3.85047284965368   -1.00836624489570   -1.40336521839048
H         2.70067933878729   -2.06252515295313   -0.66734735080188
H         4.30864234927854   -1.99463907171807    0.02658094552025
H         1.98939652861782    0.07836678416203   -0.15271983317089
H         3.74434651977740    0.55527332606871    0.08343956504286
H         2.75336409776212   -2.52933750079252    1.84857583406176
H         1.19033147653337   -1.60962806747405    1.96618635234170
H         1.18292073199565   -3.50605257147967    3.64911285698958
H         1.19278652078145   -2.71305367993082    5.15114527573424
H         2.67981777856861   -3.62380379526916    4.63282337117757
H         3.68472436339508   -1.78335052293446    5.25159412587164
H         4.79713363574935   -2.22946967819470    3.00857320787499
H         5.65931590155602   -0.78928777759042    3.64032303527963
H         2.46698937735058    1.81255948262707    1.78074177502105
H         0.68260853669160    0.00827418803679    3.20975507047221
H         0.46810008811416    0.76782898070832    1.79757226290371
