32
 energy: -49.310315256105 gnorm: 0.147463257240 xtb: 6.4.1 (79825abcba525fcdf90b791dcacef51065a7a4e7)
C         3.30346558521644   -1.50385845058236   -0.44659373879533
C         2.81581836278147   -0.27138450716042    0.30542371268550
C         3.00623511484812   -0.32172179117015    1.84567019890203
C         2.23076720007215   -1.54075614404931    2.43063973850166
N         2.46099098520593   -1.71067199864226    3.88331908968358
C         1.89980915474630   -2.93947678200559    4.42650886500304
C         3.80017824349328   -1.23116662924442    4.33556050253001
C         4.89107550968481   -1.21665104564330    3.22888102530932
O         4.43658101717636   -0.54960948293766    2.01674736932684
C         3.45647928514613    0.16472865935625    4.74220976773227
C         2.91213377419935    1.12250550176113    3.93846488791264
O         2.75074306968859    2.26964767171145    4.64330444419115
N         3.20381289428378    1.96900082338791    5.93990693079068
N         3.52392857028266    0.67531117147916    6.00230474223021
C         2.58322105870324    1.08941206152545    2.49293712674670
N         1.17787472485452    1.42479711180473    2.19321834594633
H         3.43763614699315   -1.31918963532745   -1.51821703543663
H         2.52662324220987   -2.27003416529324   -0.38931160592585
H         4.28804273547839   -1.84522441153927   -0.11362941306847
H         1.76802380418343   -0.07507962452606    0.05210610977928
H         3.33774717125517    0.63700406783398   -0.02020116939875
H         2.71491786191677   -2.34161079442275    1.85592015699704
H         1.14495020299054   -1.66552105876128    2.35027140673672
H         0.85216706187757   -2.63759641151929    4.54355137162415
H         2.26778625954679   -3.12322916138522    5.44073093784710
H         2.03950959230716   -3.78398458336307    3.74390650798934
H         4.19068276919468   -1.86339485005910    5.14181505308885
H         5.05081898700818   -2.25775825317282    2.92681320420537
H         5.91242910436553   -0.84381369537350    3.36617080761992
H         3.27629373161222    1.83092935711221    2.08593790728234
H         0.52392167058072    0.68395516031200    2.47101111914042
H         1.07728338483295    1.61178909844989    1.19903315489599
