32
 energy: -49.312113766319 gnorm: 0.145837358690 xtb: 6.4.1 (79825abcba525fcdf90b791dcacef51065a7a4e7)
C         3.49654139965331   -1.31340164454107   -0.41040580091849
C         2.68797768209935   -0.24955017446804    0.32223794963952
C         2.94781788246805   -0.42922253984792    1.84255126139733
C         2.09938193733974   -1.60255768686604    2.41963505944994
N         2.32467750588107   -1.63575038650858    3.88260869475662
C         1.88942283797179   -2.89428863375113    4.47131595922658
C         3.70236080815334   -1.21789469173351    4.27663351464916
C         4.80853344986223   -1.31944519265585    3.18986002554108
O         4.37053608599119   -0.73840856876197    1.92837976276159
C         3.52343766158636    0.19913829511915    4.71483473859257
C         2.91927793413922    1.12508248457188    3.91654108235940
O         2.71874540967975    2.22071252584931    4.68995070677354
N         3.21112301208439    1.93090799787585    5.97463605117890
N         3.70284063406515    0.69066422094788    5.97153681387450
C         2.64360336028642    1.02391638194131    2.46306310439915
N         1.28437526818454    1.51686995632662    2.16843014795603
H         3.26100080448232   -1.26617354477118   -1.47941045027810
H         3.40442543999325   -2.29798879965439    0.05423737524900
H         4.56021687516897   -1.05986657535711   -0.37720064366037
H         1.67820982832290   -0.60489186564946    0.08840034291189
H         3.00903622956567    0.74422211659169   -0.01384105104364
H         2.52191108590997   -2.51391095255515    1.97581417425417
H         1.07566858632693   -1.31185940049852    2.15785384663764
H         0.80862180864978   -2.96092170233487    4.29864914140508
H         2.16747717352782   -2.86449960242378    5.52943547250465
H         2.40700406417015   -3.73553304885872    3.99900977829069
H         4.05030872483989   -1.75159227463389    5.16901900507510
H         5.07999331642538   -2.36614854901616    3.01269119697955
H         5.71488649698814   -0.80593108912522    3.53022273011776
H         3.44777814328417    1.56159339886929    1.95310982677363
H         0.52789600722050    0.96446102929369    2.58825597521753
H         1.08183079461955    1.54169328679883    1.17251431181003
