32
 energy: -49.317408853734 gnorm: 0.148165260366 xtb: 6.4.1 (79825abcba525fcdf90b791dcacef51065a7a4e7)
C         3.32998887620405   -1.46160426784812   -0.50483081022731
C         2.95700728386074   -0.22511552889377    0.30405880741734
C         2.99419783800111   -0.28240411571272    1.85534424658022
C         2.22390081118680   -1.52160483856621    2.40362217891297
N         2.33956441068455   -1.72501222237637    3.86560681212295
C         1.98257580910293   -3.11067271797851    4.13476385789025
C         3.61533407880541   -1.22329160014520    4.45599515241247
C         4.70111611230727   -1.29267663780584    3.34636903119803
O         4.40346737706712   -0.48832753993960    2.16942151276626
C         3.40529289040895    0.22177412470444    4.77172293817711
C         2.99700601842543    1.17894988824382    3.89037693712969
O         3.09637345930842    2.42550218310369    4.41479512105852
N         3.47739929146968    2.21858271940426    5.75227127304938
N         3.64248213800929    0.90591265771233    5.92444970351002
C         2.42323838509998    1.06326124918316    2.52793936119765
N         0.94861794110317    1.09658660395525    2.56913151938215
H         3.55753970053643   -1.15813549131783   -1.53274526510574
H         2.57504668137215   -2.24582290827049   -0.41073564702259
H         4.26840814683545   -1.81453379815243   -0.06711155360264
H         1.94327227227059    0.06868411541685    0.00977671045303
H         3.57934017910932    0.64671712013504    0.06694986704032
H         2.78698113133344   -2.39040839400810    2.03729776732759
H         1.17493912719874   -1.67046511398112    2.12336530068945
H         0.88942343900040   -3.18250707401990    4.08741006671026
H         2.31422353312361   -3.43985169482087    5.12444536731695
H         2.38087223143672   -3.81611760767947    3.39831081370717
H         3.84044929487673   -1.75383303283392    5.38878754679562
H         4.82592871889677   -2.35317836897329    3.10055393717602
H         5.66646870049183   -0.84249165863923    3.60414260912304
H         2.72058179304838    1.93429699960900    1.93740602672274
H         0.64973322365585    0.20732138657002    2.98571947643990
H         0.64973640724317    1.21216753709518    1.60435190870175
