32
 energy: -49.314886127697 gnorm: 0.149570166748 xtb: 6.4.1 (79825abcba525fcdf90b791dcacef51065a7a4e7)
C         3.51702388481052   -1.48467068786349   -0.51013270448234
C         3.18073477938536   -0.20623148615783    0.24803939296634
C         3.05958312013318   -0.38696131943018    1.78550829602527
C         2.47510969151683   -1.73144632315809    2.31497548838372
N         2.38986123809137   -1.59982286288010    3.78723894085109
C         1.91732506712313   -2.89186153630071    4.26398523462651
C         3.65590245241354   -1.11695867881083    4.41321981523890
C         4.84864233995086   -1.03471038365488    3.42043896236205
O         4.45306480336575   -0.32553912780349    2.21156665901423
C         3.29216014743913    0.28231778147142    4.78969453924329
C         2.81264381971790    1.14344273786860    3.84726030535215
O         2.84944088687172    2.39755462152826    4.36168259755207
N         3.20627675226528    2.23592134196188    5.71200909608302
N         3.52003517326297    0.96076330059221    5.94765305149182
C         2.32146633904434    0.86501578235282    2.47611027475965
N         0.85868652086214    0.73379528592598    2.61883102056109
H         2.72131000260404   -2.17676930085080   -0.21294634521542
H         4.43822740642093   -1.96157728581812   -0.16700785556321
H         3.46862548000829   -1.25687370503865   -1.57903600046294
H         2.24488589350588    0.24239508827489   -0.10338615133367
H         3.87778624337127    0.63421278767439    0.14134483829845
H         3.14673553366474   -2.55252816575867    2.03069399346516
H         1.53363957518868   -1.91093622970100    1.78352341351561
H         1.79266793268380   -2.91509323121809    5.35316178071853
H         2.59589457085620   -3.71412543392812    4.01650995260531
H         0.93540539273729   -3.02597014611308    3.79868505548395
H         3.88025739887919   -1.78263463595207    5.25511832297646
H         5.06146327379182   -2.06429777442675    3.11169274543622
H         5.72815359280651   -0.54639553533569    3.85521237176923
H         2.36018934727796    1.78732987847129    1.88986524943881
H         0.51458015795641   -0.05319690282431    3.18088469103821
H         0.47536340019381    0.46397479665109    1.71675058694398
