32
 energy: -49.318980132391 gnorm: 0.140173502863 xtb: 6.4.1 (79825abcba525fcdf90b791dcacef51065a7a4e7)
C         3.64693584339428   -1.50163093238732   -0.45497529768409
C         2.95053784410055   -0.33833125821339    0.24078743585807
C         3.05232742735046   -0.34855573019840    1.79020215500515
C         2.33920335762949   -1.57821280159035    2.42971929753335
N         2.33421759426792   -1.72771067676132    3.90273566698537
C         2.11142067654162   -3.10518576507529    4.31850639811676
C         3.60431452994591   -1.16758231007239    4.45135229885291
C         4.70229913748175   -1.31375606360764    3.36136602606926
O         4.43330242189317   -0.40475696044491    2.25586202177697
C         3.33177323023171    0.26840045376483    4.76069195818604
C         2.93716762062917    1.18252656935406    3.82885815264886
O         2.76897848109413    2.38915793026782    4.42428582719525
N         3.02374931357673    2.18124998201342    5.79129164783633
N         3.39771954152049    0.91154951552203    5.95864589411682
C         2.51438190847375    1.03306765888401    2.41544258145395
N         1.06535923111127    1.30001320020814    2.33552897890489
H         2.90727910624280   -2.28032565328723   -0.67182373783611
H         4.44549501683864   -1.86728736155091    0.19493940220108
H         3.97812842044819   -1.19817262310388   -1.45247851048914
H         1.89427457653572   -0.34856438565527   -0.05038613626652
H         3.25196693083273    0.65604071183273   -0.11131473316485
H         2.79325438198919   -2.44632319609704    1.93343848613503
H         1.28266675042344   -1.52332728705951    2.14381389640995
H         1.69053101301758   -3.10653571253737    5.33104515232739
H         3.00318283210436   -3.73964981258861    4.31266419726291
H         1.38686084960999   -3.62637941375934    3.68445130799507
H         3.96318614752968   -1.70480181282373    5.33727503313495
H         4.90745682919169   -2.37220238693807    3.16574172076541
H         5.71276996013166   -1.03701237392391    3.68289518585358
H         2.97345490993249    1.84396207241189    1.84312428413558
H         0.50038681163307    0.65651541823095    2.90155635695067
H         0.69417725746382    1.36331797755611    1.39122751068157
