32
 energy: -49.317524532398 gnorm: 0.140359475366 xtb: 6.4.1 (79825abcba525fcdf90b791dcacef51065a7a4e7)
C         3.85830632484181   -1.40031826745023   -0.37114245356426
C         3.18650914692964   -0.20293450025794    0.29013112777479
C         3.04103673145882   -0.35919695675196    1.82817255584775
C         2.42374383677959   -1.71849372651985    2.27633143736590
N         2.30817630126116   -1.64176041208550    3.75041007653619
C         1.67281227848766   -2.79286613074275    4.37587754726731
C         3.57530932745771   -1.14668494158201    4.36453088986645
C         4.75033331874679   -1.18681960631428    3.34830509901800
O         4.44358035470451   -0.31185314379792    2.22531177279434
C         3.37971852140571    0.29790606041667    4.69151304401651
C         2.79723535106378    1.17249031442785    3.82233522218159
O         2.86527871753735    2.38609054376883    4.42343878333064
N         3.35405822330141    2.20873546751730    5.72976131953170
N         3.69345314389578    0.92488509309972    5.85836827103485
C         2.21614500915186    0.84980321226214    2.49680276470498
N         0.75315695917109    0.67510419726068    2.57717075583527
H         3.20837689396162   -2.28083540072410   -0.42369827433938
H         4.87041662617851   -1.66302642394792   -0.05427078508298
H         4.02890476415438   -1.06560514781474   -1.39859144434609
H         2.21687913242398   -0.09711034206605   -0.20906595927456
H         3.82298129847963    0.67847073905255    0.14302895472423
H         2.98283344519534   -2.55096694492260    1.82858176260461
H         1.37477365147795   -1.83358596080668    1.98063016481342
H         1.74509643805735   -2.59169833941273    5.45137333017433
H         2.08061482202868   -3.78671412498007    4.16663666483122
H         0.61960183173534   -2.72405433652905    4.08489935202627
H         3.90852970734345   -1.69362901231401    5.25451351504778
H         4.90451416400727   -2.17207741702616    2.89425391415434
H         5.67796275727897   -0.89046586295786    3.85099529564070
H         2.53641965365035    1.67238267405116    1.85133148640000
H         0.39350245562036   -0.16488966078987    3.04485566221327
H         0.44800014713528    0.67058143057183    1.60745549786322
