32
 energy: -49.311255678543 gnorm: 0.159356137397 xtb: 6.4.1 (79825abcba525fcdf90b791dcacef51065a7a4e7)
C         3.65618314021265   -1.41161492074604   -0.51381489369521
C         2.95360950903006   -0.33634639611977    0.30625216466713
C         3.08753756886922   -0.40970430727801    1.85151380317726
C         2.29834721970094   -1.61258809022167    2.45137530300877
N         2.37677047803865   -1.69880743013601    3.92737249576186
C         2.12415117192251   -3.09211570923832    4.26621893304741
C         3.62426517224269   -1.10960747728199    4.49699571921415
C         4.74079771457383   -1.28452941256779    3.43033530665471
O         4.48802350596866   -0.46239087846142    2.25518802515155
C         3.31548965239082    0.33787196692139    4.70065526091633
C         2.80873871630230    1.19783937293335    3.77150838872713
O         2.74521294330313    2.37797985619420    4.43634960922894
N         3.10410163331554    2.16914783293390    5.77963918904914
N         3.49330457480525    0.90154072122477    5.92692710867726
C         2.45392211621519    0.98366075512438    2.34775911973157
N         0.99995158433033    1.22929355411265    2.29347246937711
H         3.35418569992588   -2.44331042818813   -0.30195945217932
H         4.73346453886450   -1.37558198764437   -0.33504993470020
H         3.36577069718118   -1.22756073420677   -1.55235848840022
H         1.85790266659141   -0.33802855734299    0.30465556369721
H         3.34387507986335    0.65916109956751    0.06075539821708
H         2.63307242598655   -2.51673055249698    1.92548741227143
H         1.27472430513516   -1.37951297841255    2.13689789401119
H         1.81757639857202   -3.17842603588529    5.31547919356258
H         2.92624404718533   -3.83388304139043    4.20105189021890
H         1.25048931247136   -3.43941455533258    3.70518944558553
H         4.00806637521525   -1.52347277599980    5.43703022306260
H         4.72063873542782   -2.33461669042888    3.11796134102604
H         5.67047040708196   -0.97533497890222    3.92138198648122
H         2.98369460338045    1.74958908164884    1.77457424159249
H         0.48326107703727    0.52853157202051    2.83719462970222
H         0.68407274845401    1.00020377968941    1.35473541642648
