32
 energy: -49.319178110699 gnorm: 0.150818025755 xtb: 6.4.1 (79825abcba525fcdf90b791dcacef51065a7a4e7)
C         4.09571896247084   -0.47868734656040   -0.43942683081974
C         2.80145882598128   -0.64341152672919    0.34802395052765
C         2.95330735541987   -0.55158657699619    1.89063921150612
C         2.06172335644311   -1.67130824487122    2.50779882126721
N         2.10510957086405   -1.73048161353234    3.98657123377399
C         1.83376389457142   -3.09901062374553    4.40303402976739
C         3.38316339999257   -1.18921598191247    4.53564330749437
C         4.49715570466701   -1.51161515850097    3.50119323565402
O         4.34799878489044   -0.76054013983856    2.26247767719563
C         3.26583097805884    0.29514857024905    4.65775493720702
C         2.91017006170081    1.22083267087482    3.72166272838076
O         3.19872591726197    2.42677810939385    4.27049060937929
N         3.66347548798410    2.21301447207156    5.58012862987935
N         3.55171948465749    0.90892398567709    5.83869979758050
C         2.56762253869848    0.95502756993343    2.30362248822718
N         1.10337284991150    1.11127339817791    2.20942630355816
H         3.89875850859054   -0.53334194183290   -1.51585623313963
H         4.84222085587226   -1.24019527290841   -0.20145394188045
H         4.53238548533162    0.50180912700455   -0.22791526736660
H         2.32298488531174   -1.58822115200795    0.06699669894792
H         2.11332813874055    0.15824599308647    0.05233419915532
H         2.48607781295666   -2.61325592656700    2.13533339488348
H         0.99037190034383   -1.57015423123098    2.30043961675643
H         0.83102445992327   -3.39834234402128    4.07546906215226
H         1.94647185197460   -3.18742487568761    5.48806782611916
H         2.47084669579913   -3.81959579521885    3.88002529660908
H         3.61377484155207   -1.60823972502087    5.52229936970240
H         4.53273115156871   -2.57285072615239    3.23067406038284
H         5.44396126447338   -1.08568305563977    3.85213544021047
H         2.94753006107055    1.70056866737805    1.59957367401944
H         0.65471884985735    0.70709478726046    3.03949826741519
H         0.73348174099418    0.67319349695557    1.36992920075013
