32
 energy: -49.314415517055 gnorm: 0.143014073232 xtb: 6.4.1 (79825abcba525fcdf90b791dcacef51065a7a4e7)
C         3.76784026255983   -1.31964593200457   -0.43968453024818
C         3.02478142550061   -0.24287036751804    0.34181405521728
C         3.06075404610219   -0.40114582315753    1.88609592554495
C         2.38115855591439   -1.74812250395200    2.27774427510498
N         2.22158634287383   -1.64835732787735    3.74632703770622
C         1.84008372871477   -2.96952690053987    4.22477046264840
C         3.42908521382636   -1.11747143053406    4.44488044826077
C         4.66025461899421   -1.24117587203465    3.50470697815671
O         4.46236559113339   -0.47430254879108    2.28260921340456
C         3.20260286156497    0.33347677725535    4.71960091455106
C         2.85168983575188    1.29163374481250    3.81491883653949
O         3.08398034289103    2.53640166581228    4.30007331556109
N         3.56196866930765    2.30759656314497    5.60238441096108
N         3.61237696663085    0.99509635289244    5.83648407371682
C         2.29176480563778    0.86767716952792    2.50894254484517
N         0.82703685074689    0.69767463667629    2.56356831600155
H         3.24614749908106   -2.27625451860301   -0.55465180742856
H         4.73924826616892   -1.38305301652273    0.05643695548821
H         3.95711525901015   -0.95724917912051   -1.45439222137256
H         2.02140247136542    0.07352148864807    0.03570014905087
H         3.65468038106212    0.64324623908886    0.19472319761026
H         3.00530916837924   -2.57966651588350    1.92412979349881
H         1.39214844202755   -1.74092080222186    1.80569443213758
H         1.24121801290639   -2.88732814466555    5.13964087996354
H         2.74373655914369   -3.56660784020148    4.38201046520567
H         1.29712006356382   -3.48884685903992    3.42843330948311
H         3.51713977128750   -1.63985853760853    5.40488608938870
H         4.72247954141720   -2.32062403263182    3.32697993630203
H         5.63453771386311   -0.95507254630823    3.91694076026278
H         2.44431007289563    1.69230185531229    1.80710918313862
H         0.48591185027408    0.15078450631895    3.36245199957279
H         0.54181791416231    0.32331539910706    1.66246114257808
