32
 energy: -49.310639472553 gnorm: 0.155391923885 xtb: 6.4.1 (79825abcba525fcdf90b791dcacef51065a7a4e7)
C         3.71358870878383   -1.47715509977557   -0.36268315531917
C         3.01150427799992   -0.31333318509085    0.32645985632619
C         3.08841313819223   -0.35331014686647    1.87682707323080
C         2.36064620366992   -1.60700657756270    2.44970155947636
N         2.29406075502789   -1.68093913300393    3.92694631242376
C         2.14631922014239   -3.08353237959617    4.28867275172795
C         3.60332623332840   -1.15182502796149    4.41040509843238
C         4.77170854823490   -1.15939015648186    3.38579172245197
O         4.47357723187391   -0.22018870917447    2.31350628268285
C         3.27661849417159    0.27892347374434    4.69011396366530
C         2.72876499598694    1.14619997073122    3.79159163662062
O         2.59675407062013    2.32716227204495    4.44480069831961
N         3.16042048461226    2.21348063560078    5.72784218514081
N         3.57565891856372    0.95019915121775    5.83599661148748
C         2.34501341332536    0.98650700595729    2.36819353908712
N         0.87513121399443    1.02803147765473    2.24557689769326
H         2.98955360377055   -2.10123650434027   -0.89819820619930
H         4.30495221328959   -2.05718225140444    0.34981119775207
H         4.46213448248089   -1.25113056144824   -1.12778462524379
H         1.95142484380642   -0.36858602450371    0.05487639885346
H         3.38868271715621    0.67704507048669    0.04273748366530
H         3.00875544216933   -2.39692583840741    2.04714148325566
H         1.35711816894246   -1.52713154129362    2.01660181962394
H         1.55017787348938   -3.64333515718281    3.55817907909597
H         1.68541725836985   -3.06952545936991    5.28124098252335
H         3.08169704161945   -3.65238391235515    4.30015686379814
H         3.86822368392760   -1.55744669396272    5.39404788295075
H         4.96468021264410   -2.20229345443484    3.11050675151438
H         5.68288469601461   -0.76762348177843    3.85194218556378
H         2.78559895787402    1.71320111981594    1.67997407591621
H         0.53063286423623    0.34609639240137    2.93111001217153
H         0.43974818772282    0.77147614844996    1.36347157958055
