32
 energy: -49.311106222378 gnorm: 0.145433396142 xtb: 6.4.1 (79825abcba525fcdf90b791dcacef51065a7a4e7)
C         3.51345592031288   -1.47114698583196   -0.34451588127903
C         3.25870911888884   -0.12072048928080    0.31409966146095
C         3.05737904796014   -0.31425786194641    1.84156851903394
C         2.46628301767090   -1.67308667433157    2.32507068030226
N         2.28271474960455   -1.78630503580392    3.78986963507455
C         2.02958458366597   -3.14281235979893    4.25436331436049
C         3.50123707848917   -1.19936494333233    4.42119749491715
C         4.73536603109199   -1.14743669540627    3.47820426606349
O         4.42813987081891   -0.29353633489840    2.33923808358129
C         3.29452524796380    0.26293964048530    4.64692251393968
C         2.81829991042538    1.20192705234712    3.78022393947323
O         2.88077441017876    2.45018264097643    4.30628081675716
N         3.28762484352855    2.25181326836848    5.63743111556958
N         3.53593443403729    0.95066137825205    5.79663712044368
C         2.29392540109861    0.98286883334927    2.41059839032310
N         0.82368221160909    0.90357411418264    2.50760415122397
H         2.65151167624211   -2.07457401637117   -0.03888744118045
H         4.46392281107097   -1.88732661440353   -0.00217438322109
H         3.41368633771308   -1.45119798331317   -1.43375240057451
H         2.36893987381761    0.24520720941781   -0.21029185376781
H         4.02083607744036    0.66516088706711    0.24223862329129
H         3.08493600553718   -2.48485236600214    1.91963564768116
H         1.48203370233590   -1.88374887287813    1.89159792235673
H         2.44495578297818   -3.31691439473593    5.25413324076330
H         2.56747499864921   -3.83344502045404    3.59746230889795
H         0.95344817612609   -3.34170237226960    4.22228819753405
H         3.84024625175006   -1.59420035968930    5.38630395935255
H         5.01235300757622   -2.13949392989860    3.10434891135559
H         5.56367679253760   -0.59989426819492    3.94201234018489
H         2.53347300185902    1.89053413149271    1.84970032626535
H         0.52739110254904    0.30517675129068    3.28722097727961
H         0.31368249424625    0.54572728035959    1.70427685715391
