32
 energy: -49.319443617505 gnorm: 0.138535895456 xtb: 6.4.1 (79825abcba525fcdf90b791dcacef51065a7a4e7)
C         3.84035648917611   -1.40523057097460   -0.48316638512675
C         2.93909042868024   -0.44519040501571    0.28388279782638
C         3.05043250353870   -0.40616557332624    1.83218239041808
C         2.26288381921450   -1.61016928963495    2.43195462628473
N         2.36289644095848   -1.76655909973320    3.90086285807595
C         2.23874718531037   -3.15874942840648    4.30870404571556
C         3.57520596588610   -1.09898106559516    4.45989361725748
C         4.75010972734370   -1.27393582376993    3.45789610804437
O         4.44563221766793   -0.54815529670892    2.23261501018440
C         3.21876243392149    0.32304981652820    4.74763036852818
C         2.80795982435966    1.20660175479755    3.79356981281624
O         2.63124332204921    2.39779290141568    4.41696042575838
N         2.91589990345532    2.20542690387220    5.78034032718686
N         3.28804161764947    0.93696224047154    5.96064116030078
C         2.52942624190933    1.02607641296053    2.34835048134904
N         1.08936989098457    1.29857901055324    2.17719893932249
H         4.20862226131573   -2.11687994577149    0.26410618349274
H         4.64592010009924   -0.86020186615681   -0.98096300335058
H         3.31000181299463   -1.93074763890811   -1.28275618920421
H         1.90210812331463   -0.65946000813119    0.00221794498333
H         3.21145501399309    0.59513738340828    0.06674993968735
H         2.72804807941155   -2.48405838041397    1.95654669754503
H         1.19202156876797   -1.53216519376996    2.21242486246193
H         1.20222580672127   -3.41119085068855    4.05516623561464
H         2.36449334726899   -3.10386907274236    5.39451920199852
H         2.88168491537486   -3.89029686609222    3.80857902299366
H         3.89641806729093   -1.52334655766384    5.41853298362852
H         4.89261867066777   -2.34325846665578    3.26578298515870
H         5.62484880818810   -0.81679675479251    3.93420983175134
H         3.11236296368902    1.75917392664465    1.78390490672263
H         0.55207175974341    1.05858437989685    3.01825988614001
H         0.67108209972574    0.95530394526286    1.31656756398822
