32
 energy: -49.323284823484 gnorm: 0.142610539708 xtb: 6.4.1 (79825abcba525fcdf90b791dcacef51065a7a4e7)
C         3.59189558913592   -1.52026562349303   -0.43063821414663
C         3.08510910570352   -0.30903245781144    0.34292740422867
C         3.13898500065970   -0.31080078186042    1.89477981446841
C         2.38818859657153   -1.61084426679569    2.31403669271193
N         2.27655157104412   -1.70876474104756    3.78716277616162
C         1.88659290523543   -3.03904236401245    4.23239874704097
C         3.49259002620572   -1.11673712425134    4.41852954598870
C         4.69496021235015   -1.22415151087088    3.43986968241924
O         4.53383407528504   -0.30631357491169    2.32076754182648
C         3.19513930242633    0.31317649363864    4.73299163580232
C         2.83017114369315    1.25011625189972    3.81179864648172
O         2.85876483430043    2.45478373108336    4.43368255968235
N         3.39071038125049    2.25759327279230    5.72014618604208
N         3.56391844203143    0.94456120326495    5.88122443925457
C         2.39328460354040    1.01715993543547    2.41405374369802
N         0.92207844775586    0.90540617540785    2.43345418951610
H         3.03418735826035   -2.46089742591241   -0.36241694027183
H         4.62743942397528   -1.73697344291761   -0.15773313516964
H         3.61671760738287   -1.19630161106307   -1.47525264775293
H         2.04044750138066   -0.09936824510396    0.08738502034151
H         3.69737957209615    0.54248376325613    0.02097080616050
H         2.99950622241616   -2.46910298004096    2.00459303810710
H         1.37222831741851   -1.65725358603974    1.90575394297226
H         1.51697973639978   -2.98604741272680    5.26339937766643
H         2.66930588599618   -3.80322379513509    4.26712094064038
H         1.20592776717181   -3.51175833514043    3.51693372407349
H         3.85747650716461   -1.60392943870959    5.33053515265841
H         4.85331142131460   -2.25937171244228    3.11751708190016
H         5.61808503008412   -0.84119780770877    3.88954332886924
H         2.58228363478884    1.88618968886141    1.77772627120297
H         0.58663109925347    0.23291977424916    3.13267328415530
H         0.66427787182988    0.55198010563665    1.51578447866019
