32
 energy: -49.318772823188 gnorm: 0.144687868525 xtb: 6.4.1 (79825abcba525fcdf90b791dcacef51065a7a4e7)
C         3.42811475011313   -1.47794776781303   -0.52546055256244
C         2.99535419220153   -0.25389993779929    0.27250391701934
C         3.10872692056299   -0.36859997968506    1.81689446250387
C         2.36299959368352   -1.61293224979048    2.38708091479295
N         2.33080164037840   -1.61977372548210    3.86730663776345
C         2.13429287946558   -2.99975287260589    4.28800041994569
C         3.58853012366955   -1.13045602848527    4.50492524270039
C         4.74535102766595   -1.18927852886857    3.46891734831910
O         4.49856481997859   -0.42251103394394    2.25568122929487
C         3.33593590590654    0.31793135828336    4.77022965925999
C         2.79548309968642    1.15814607263303    3.84200318773660
O         2.72332510192346    2.38878623863398    4.40689162447791
N         3.22014718437869    2.23687891506489    5.71338723809168
N         3.58479279799687    0.97317633004139    5.93719475822665
C         2.40293420000701    0.94172374220583    2.42853368455279
N         0.92795755717911    0.90066380878866    2.42011831394809
H         2.63729641682028   -2.20355704908536   -0.74586548938489
H         4.28314194107185   -1.92904412659637   -0.01631315560783
H         3.86591163860928   -1.14771665046892   -1.47206998704753
H         1.99740713390389    0.08203891732264   -0.03052348398043
H         3.72520038988888    0.51208839896176   -0.01766404651507
H         2.77303773228450   -2.52364872787846    1.93042256083258
H         1.36060794665804   -1.70972578558597    1.95480100786836
H         1.65789496657373   -2.97453958435473    5.27531697574970
H         3.10756838835991   -3.50030538188316    4.28868968919226
H         1.48332912880050   -3.47008527462930    3.54389743641800
H         3.85779322779896   -1.74627672574576    5.37124791434313
H         4.91283106631761   -2.24785043871950    3.24078773900980
H         5.64992608880232   -0.68542332410762    3.82793440443061
H         2.67395630462305    1.85508597548088    1.89172603772483
H         0.65448821922749    0.14561136158405    3.05947779936984
H         0.69525624221644    0.73167900463159    1.44503726280984
