32
 energy: -49.318006997985 gnorm: 0.146306093385 xtb: 6.4.1 (79825abcba525fcdf90b791dcacef51065a7a4e7)
C         3.75766164256707   -1.39581073492341   -0.51208939295658
C         3.05550412359581   -0.31004514409403    0.29439060015564
C         3.09997563624969   -0.40536952681316    1.84361207164626
C         2.29838794582635   -1.61467163990310    2.41337534381584
N         2.25508296626279   -1.62388087465129    3.89330492557356
C         1.92065606981796   -2.92937376905430    4.44447489967573
C         3.57441413673932   -1.13764019548401    4.39410976105888
C         4.74729868431485   -1.24956718251737    3.38078789157019
O         4.52063006357943   -0.48112075618782    2.16469203841534
C         3.29660489457420    0.30810549806809    4.64838850363200
C         2.81674809905897    1.26928163909419    3.80842883933996
O         2.76484634548682    2.42822023457989    4.51053171367276
N         3.22835170077061    2.16227476220511    5.81102184788801
N         3.55496764338388    0.86967955945449    5.86122259005540
C         2.40908583980820    0.92671413810747    2.42448944510286
N         0.93482971324552    0.96766087561919    2.37753154283128
H         3.13927114559266   -2.26336813458864   -0.76785911635728
H         4.67226463124290   -1.69452267417068    0.00565865750341
H         4.15231263263120   -0.95140462385640   -1.43053478110767
H         1.98794041433287   -0.29625153334343    0.04802437423562
H         3.37993706040289    0.68273628265520   -0.04137621393682
H         2.66808199626739   -2.59834352363461    2.09433214755143
H         1.27879024119932   -1.51908724832602    2.02310868958836
H         1.54624617305271   -2.74928134476937    5.45925005157450
H         2.80549454729189   -3.57215987868365    4.40317854794710
H         1.11339832667014   -3.33445603720355    3.82568663768319
H         3.83397419972373   -1.75573465831939    5.26177359109257
H         4.85499204398527   -2.26250679780264    2.97702726699999
H         5.68755683445842   -0.90549046753783    3.82637197282637
H         2.79652607543410    1.70217343828124    1.75785691717882
H         0.61616682698744    0.17790114726926    2.95059677633606
H         0.62908970802066    0.77798463120309    1.42672410298502
