32
 energy: -49.310701032014 gnorm: 0.145053340561 xtb: 6.4.1 (79825abcba525fcdf90b791dcacef51065a7a4e7)
C         4.21393473820093   -0.61388008260562   -0.34599811092436
C         2.86797234034601   -0.42759245016269    0.34393249077515
C         2.96121239258226   -0.57399522887641    1.88698925096694
C         2.09220464585846   -1.74490731988881    2.43778417195884
N         2.06787178093550   -1.69283841947937    3.91725990711102
C         1.79328803446622   -2.99485520386977    4.50827382594251
C         3.41297416343703   -1.21565743856780    4.35414445541367
C         4.60637073483090   -1.46921844541892    3.39158615901152
O         4.38540449169455   -0.70017916707724    2.17481575554295
C         3.38574583934842    0.23445245093003    4.71255233619133
C         2.91235502970406    1.11544422987443    3.78550918110549
O         2.91804848154796    2.37267006453839    4.29357582983094
N         3.58459834296695    2.25868423966574    5.52627908611343
N         3.80125847066196    0.96727395799005    5.78185357934291
C         2.38166983262045    0.82478368527876    2.43172967185467
N         0.92451467906668    1.01436072032985    2.29729672329286
H         4.08599385167899   -0.41824906331385   -1.41643747800562
H         4.50269345517906   -1.66478338417485   -0.26846650186895
H         4.98423387468162    0.08357158789680   -0.00396224151400
H         2.19857051050588   -1.19363353507967   -0.06308237881171
H         2.47513565077363    0.55045935986058    0.03945746362468
H         2.58153026160993   -2.69147195369728    2.17198637307105
H         1.04724247093312   -1.61230075761627    2.13530529003854
H         0.73695651508591   -3.16101027073571    4.26549640140473
H         1.97097211984825   -2.89922354367181    5.58396033058787
H         2.47012873660486   -3.74542037136284    4.08732939391427
H         3.66019236904151   -1.71650003282996    5.29769762620233
H         4.77028563025511   -2.51630752524168    3.11337125797361
H         5.45566916240680   -1.13109456502029    3.99605599191604
H         2.83623638399062    1.61328496613583    1.82552757112682
H         0.35720323385760    0.42291349068549    2.91537286578472
H         0.58564057693284    0.99697266569035    1.33899050331231
