32
 energy: -49.312155672389 gnorm: 0.156208611968 xtb: 6.4.1 (79825abcba525fcdf90b791dcacef51065a7a4e7)
C         3.21846990865722   -1.58326857078995   -0.39982366537407
C         2.87065878932753   -0.28378315325936    0.31619809845471
C         3.09441149042354   -0.28673269805013    1.85277796150269
C         2.27471027154910   -1.52327015888831    2.33095121226047
N         2.38958169751172   -1.67479144916527    3.79928276830334
C         1.86991006611421   -2.92010573655068    4.34616036504686
C         3.73063474658769   -1.20961736823215    4.26086701534166
C         4.84312943593220   -1.35007120270565    3.18493239109785
O         4.52172534422712   -0.39747851935871    2.13134599329943
C         3.47191187712635    0.17994725007199    4.74479772706654
C         2.95993893701655    1.15301716899365    3.93815466447598
O         2.78916410398933    2.30946459387603    4.62535641961280
N         3.20767303354545    2.01531426915698    5.93499937414810
N         3.58237190186160    0.73572772956007    5.98253352580455
C         2.60236624048432    1.10187059195592    2.49997696201193
N         1.14256570869964    1.29598154907381    2.40715357641439
H         3.29789193188776   -1.38137624748763   -1.47379407284386
H         2.61231492801175   -2.42377149379605   -0.05352686956485
H         4.23792342558670   -1.91346897355199   -0.17966383844522
H         1.90346221881547    0.11569697730096   -0.00864844070054
H         3.50745457841419    0.44912939104350   -0.19462611412829
H         2.62984377413958   -2.40663479570212    1.78357588632541
H         1.22788826625170   -1.37756738635807    2.04119560618344
H         0.88224592887504   -3.16534199277478    3.93779363047317
H         1.72837643078238   -2.72975263596964    5.41459493519508
H         2.62455648450179   -3.68730605244593    4.14474517565111
H         3.95554457847322   -1.80565082632533    5.15328642980879
H         4.90140914183113   -2.39755144089249    2.86861642091790
H         5.78862106386960   -0.91726872865504    3.53097711840629
H         3.09533132028138    1.85210609302323    1.87549467741688
H         0.72185599250099    0.42788918125078    2.75799428785907
H         0.84442232695849    1.50317331004687    1.45759003593786
