32
 energy: -49.315240021138 gnorm: 0.145118382800 xtb: 6.4.1 (79825abcba525fcdf90b791dcacef51065a7a4e7)
C         3.53213189980263   -1.49873244386919   -0.52008610575927
C         3.01419156186170   -0.32773007020563    0.30623909026394
C         3.12207362817025   -0.38887254441824    1.85406811403200
C         2.45727583653559   -1.69751623064655    2.37854901110085
N         2.40824449988139   -1.74558591262891    3.85754763398110
C         2.17962185175188   -3.07801485679764    4.39820110524770
C         3.57343602059818   -1.06299236553233    4.49336598954143
C         4.77955385589423   -1.20391746104340    3.52360988100715
O         4.51708042774680   -0.56949196342554    2.23932421072138
C         3.20266751912445    0.37086268530772    4.68985180188853
C         2.88604314472614    1.30088129385906    3.74408822051670
O         2.73755081464629    2.48146092203571    4.39444403706930
N         2.86408635837633    2.18804453330549    5.76365343696864
N         3.13966961275122    0.89523811606649    5.94450112766385
C         2.48983012985524    1.00672772128992    2.34576129485907
N         1.02119507984683    1.13484181476174    2.28243136867498
H         3.00052848044748   -2.45535194276678   -0.46757192981630
H         4.53482742710686   -1.73748922052138   -0.15761214031119
H         3.69943034173849   -1.14670228006550   -1.54227695030661
H         2.00061153938589    0.00664599109579    0.05839429644000
H         3.67857061298799    0.47251903146051   -0.04277795964492
H         3.16871801131691   -2.48406668592726    2.09348577867776
H         1.46873034214294   -1.83328537481625    1.92537304350208
H         1.11551784813670   -3.31003860192264    4.27079501997527
H         2.36204461918484   -3.15593176633123    5.47452326427043
H         2.79239698951954   -3.84744938407023    3.91743842325633
H         3.87569918296878   -1.50865876815791    5.44849485685445
H         5.03897438313116   -2.25584403054752    3.35984588062502
H         5.64600276797309   -0.67160833691637    3.93218377807428
H         2.84234194487155    1.72788302255665    1.60311976765411
H         0.58961034754676    0.40160324950373    2.85668396801827
H         0.58028247439710    1.16039541312553    1.36677209895544
