32
 energy: -49.316644743656 gnorm: 0.143257022667 xtb: 6.4.1 (79825abcba525fcdf90b791dcacef51065a7a4e7)
C         3.68429344835326    0.16676352615951   -0.47276666023028
C         2.85040288908321   -0.82433048425958    0.33015381273154
C         3.02782721635984   -0.69329220302285    1.86719681985268
C         2.11417388580591   -1.77565008199081    2.51783007892192
N         2.14134841950092   -1.66140158920961    3.99375708565765
C         1.62149097822321   -2.82732037610906    4.69398777140579
C         3.50349402382366   -1.29234260616980    4.47978696213897
C         4.61718450318454   -1.72682570183347    3.48684940543014
O         4.39649957473001   -1.06277535193107    2.20969906358836
C         3.56763803151393    0.18974487384426    4.65675738735036
C         3.02311533761728    1.05827912270833    3.75742559830257
O         2.87307417526084    2.28119945534135    4.32375980582852
N         3.29047029023302    2.13969330095545    5.65889848548241
N         3.76049750197116    0.89933148970197    5.80234689732285
C         2.69131917141599    0.80946457598615    2.33375713436256
N         1.37244092391737    1.31033055099522    1.90131495054884
H         3.91509134111774   -0.31721657001449   -1.42826464730595
H         4.57763627622472    0.42097313659745    0.10265193611551
H         3.11377551375513    1.07632324704730   -0.68252492198617
H         3.16709197529363   -1.82355305011662    0.01102822345802
H         1.78105486900678   -0.72297390371941    0.10692141513714
H         2.41731205488904   -2.78150871199082    2.19778587063424
H         1.05721908584225   -1.60594745646032    2.28315692437257
H         0.54177274452779   -2.87953059238882    4.50995709403324
H         1.65402542948130   -2.63921897592414    5.77166020631108
H         2.26098113548451   -3.66407093949205    4.39472792614607
H         3.68341328333898   -1.76964751191357    5.45038564918009
H         4.74047088586638   -2.81561609211314    3.48861522836722
H         5.60364663534276   -1.35733119093413    3.78914995279853
H         3.46413807728893    1.33337445466342    1.76444581375077
H         0.70423784081901    0.61859915178968    2.26003843268271
H         1.29938673011359    1.31924498011380    0.88737588345441
