32
 energy: -49.316359142465 gnorm: 0.144178074885 xtb: 6.4.1 (79825abcba525fcdf90b791dcacef51065a7a4e7)
C         3.83003156757993   -1.39071639881708   -0.30125537744118
C         3.02332097526326   -0.23543032619119    0.27913604460868
C         2.99668603570538   -0.38717774508622    1.82426223271102
C         2.29985630932894   -1.68657701435706    2.32980599913071
N         2.34919739812732   -1.72792909929192    3.80899738503643
C         1.94096924681689   -2.99481151853003    4.39916693105205
C         3.59633134850836   -1.16357055220261    4.40399868735129
C         4.77376313882666   -1.17511498370995    3.38983492091722
O         4.38883189130577   -0.34492357645462    2.25696781909502
C         3.36422528762410    0.27415870664699    4.73728179720673
C         2.81733850151959    1.13005329220782    3.82732923140026
O         2.88420824908079    2.37923484826076    4.35064061762204
N         3.36361997262309    2.25179227574706    5.66622474330507
N         3.64558504036353    0.96476665757991    5.87613236021741
C         2.27806113935343    0.90211694882001    2.46495841897220
N         0.80443037777294    0.83480460281273    2.43040069902120
H         3.29372616840417   -2.34614307970865   -0.30540017909453
H         4.84759661599831   -1.49602032890395    0.08249317187612
H         3.91314201596911   -1.13280300807588   -1.36114285577636
H         2.01458333670387   -0.17529892451464   -0.14443383900236
H         3.37904716835176    0.76546358008704    0.00476164442844
H         2.85540212049316   -2.49146800758083    1.83021419421516
H         1.25376553484602   -1.61762149564218    2.01048931004801
H         1.74627017200003   -2.96093203935082    5.47774428505142
H         2.67663023795333   -3.74446915706888    4.09153918092082
H         0.97461480127381   -3.21122751855570    3.93228491028242
H         3.88530044002482   -1.70343513322807    5.31355672124463
H         4.91875199461718   -2.18375850088430    2.98699046382228
H         5.71164885676627   -0.70751516604520    3.71036595437065
H         2.56279971869649    1.83150105868865    1.96394432915679
H         0.43189653583924   -0.04308073142882    2.81014547838198
H         0.25010015934678    1.05588454225323    1.60739980234376
