32
 energy: -49.311983537727 gnorm: 0.148083568367 xtb: 6.4.1 (79825abcba525fcdf90b791dcacef51065a7a4e7)
C         3.02114284309219   -1.80949218609523   -0.20930807603619
C         2.58381154216503   -0.51243432373272    0.46054587740700
C         2.95903219906529   -0.50630114405539    1.96730513658742
C         1.96830224803264   -1.28070062003188    2.88836117346871
N         2.57407824478882   -1.92673701100812    4.07487881368760
C         2.94605280702684   -3.27532736802023    3.67129443211633
C         3.73162047873032   -1.08468193776304    4.49785567506154
C         4.87184810063615   -0.95870436748483    3.44951525628307
O         4.31185159279294   -1.03297338795099    2.10725383717404
C         3.18853069761000    0.26363162190312    4.84299373144582
C         2.86452510492165    1.15480093452955    3.86294680407272
O         2.38612477892653    2.30059486586689    4.40798838002216
N         2.46260262476008    2.11413002441147    5.79946989379170
N         2.81189918082791    0.84466807658219    6.01501274845870
C         2.95938673186871    1.04708084986716    2.38706505804206
N         1.88998343299133    1.91497711837301    1.85749404151298
H         2.39138821365495   -2.67512698493678    0.02428623568403
H         4.00008184793878   -1.97675172074626    0.24620610487190
H         3.25197744230553   -1.85463280234791   -1.27770212185267
H         1.49365731983506   -0.40224777500951    0.45930022615891
H         3.06045353826844    0.30503787012114   -0.09457812943031
H         1.59568349331289   -2.13086239491518    2.30146011654278
H         1.15158986067119   -0.60566905325848    3.16824895811348
H         3.33346673327721   -3.83175136352938    4.53308758877835
H         3.71681113201145   -3.34672425555954    2.89756800284018
H         2.01468749712562   -3.69490404260019    3.27737858555990
H         4.03951141377320   -1.57190027959276    5.43063333935989
H         5.55666736626726   -1.80924392928266    3.54046683717264
H         5.41200179137177   -0.02555323558410    3.64568431663665
H         3.94651156730175    1.44198179918397    2.13116705286929
H         0.97588203516046    1.45649901833239    1.94630106940420
H         2.03925397665436    2.14971985917674    0.87968886394881
