32
 energy: -49.313234358994 gnorm: 0.163860362562 xtb: 6.4.1 (79825abcba525fcdf90b791dcacef51065a7a4e7)
C         3.85847672307459   -1.30215822688878   -0.32578761700333
C         2.81882215405795   -0.37135769094230    0.28662631345368
C         2.88997189931277   -0.27321315337030    1.83467572579396
C         2.15851724094900   -1.55960066296566    2.32433467134500
N         2.18685600671547   -1.62104971118333    3.80337917182660
C         1.89421824098502   -2.97477378443459    4.25252910917745
C         3.50540167552344   -1.23696709412927    4.38800562544097
C         4.58120654792601   -1.29518239469528    3.26806727378895
O         4.29450255573694   -0.32048048272909    2.22473860321639
C         3.39323732346479    0.22300849871570    4.68449629324086
C         2.94216848929844    1.20669387906473    3.85470454752083
O         3.23723632785729    2.38252296343058    4.46227499793261
N         3.86274900404319    2.04907434187858    5.67651744024251
N         3.84244278285072    0.72857280019330    5.86589481007412
C         2.27380697377097    1.03397488814633    2.54234396770790
N         0.80178927695518    1.07109936603015    2.63772984240264
H         3.81001144645898   -1.23811107181087   -1.41850436005470
H         3.62059504507804   -2.33307324085966   -0.05299275830520
H         4.87205024746303   -1.05945647463839    0.00670704030140
H         1.82364335806047   -0.62902757298015   -0.09258899008747
H         3.02379663808053    0.62143922449453   -0.13283857307546
H         2.58067852494690   -2.51195959533039    1.97667831469297
H         1.11272246202568   -1.52809297990378    1.99822968040613
H         0.81868669290556   -3.14495223018331    4.12347157230828
H         2.15503602616081   -3.17510098171560    5.29639768361593
H         2.32108347705546   -3.80116946329495    3.67502424128200
H         3.83059583460857   -1.75078315580093    5.30041701188776
H         4.72254890344636   -2.29072835904345    2.83266201083785
H         5.51360492185169   -0.83032986168199    3.60801543913226
H         2.57503945410843    1.80456532837112    1.82729477062806
H         0.44745048699932    0.20800735012233    3.06573266181793
H         0.40946302487671    1.18921270319948    1.70734381266511
