32
 energy: -49.314153945598 gnorm: 0.140590338571 xtb: 6.4.1 (79825abcba525fcdf90b791dcacef51065a7a4e7)
C         3.56299290045558   -1.30596269927030   -0.45917302191843
C         2.94355509746921   -0.12468801760872    0.27785413358806
C         3.03905351102752   -0.37348266735547    1.80760343016795
C         2.27064399324119   -1.64170146553431    2.28797048683533
N         2.31829927672524   -1.64612029823477    3.76778842824385
C         1.74994538269211   -2.79490325840721    4.45859443625736
C         3.63886778002577   -1.24867113495061    4.33875532578433
C         4.75173080271280   -1.39015911565353    3.26333723736986
O         4.44279723963638   -0.44869085539158    2.19610939475755
C         3.50472274536035    0.18902273877605    4.72223634445671
C         2.99654220709692    1.09252958365951    3.83618765763807
O         2.96228330051721    2.30262934669960    4.44714249875555
N         3.40876730945377    2.11710283689815    5.76739654428411
N         3.70063233383163    0.82316874899519    5.91074865579204
C         2.46592265201785    0.98316079830440    2.45585775860782
N         0.99379541822872    1.05139614148151    2.53000738402655
H         3.64222378241094   -0.95678092887959   -1.49468031974644
H         2.90808511984282   -2.17244664823996   -0.34046387607873
H         4.54089952843254   -1.49399369127672   -0.00625900940593
H         1.87977579014335   -0.11290492310294    0.01553066699784
H         3.40610123919408    0.84687678364269    0.06402253510218
H         2.64553852736867   -2.56529326096702    1.82698794189117
H         1.20501032390776   -1.61509596652179    2.03352806979171
H         0.68781210705258   -2.72777091687904    4.72269822171804
H         2.22110780774877   -2.91950496086042    5.43854284648826
H         1.92824614023197   -3.63510765932342    3.77968278985666
H         3.77134764782720   -1.83147297852083    5.25801796916873
H         4.75784363955140   -2.37884830404141    2.79097774930360
H         5.76624782749974   -1.25572545090088    3.65538588451318
H         2.61652007035357    1.86638916338026    1.82890157343690
H         0.66573805114693    0.26703312717008    3.10517975108035
H         0.62869775790624    0.83081022320794    1.60722118414577
