32
 energy: -49.310882354410 gnorm: 0.150801352334 xtb: 6.4.1 (79825abcba525fcdf90b791dcacef51065a7a4e7)
C         3.83202073674383   -1.44563444157278   -0.19981717654506
C         2.94344978974465   -0.29818198585842    0.26506628545937
C         2.93945785485551   -0.33335620055369    1.81745105920291
C         2.11324293422287   -1.55182419707862    2.32959290825101
N         2.24766174933312   -1.83864670100459    3.77590412063349
C         2.17247321862089   -3.19486411322801    4.30027269153707
C         3.42630014090107   -1.19199695680472    4.42438377808134
C         4.61153093259445   -1.19069763590614    3.41928013908447
O         4.34161302516533   -0.43052310314811    2.20682118786996
C         3.17746519346279    0.24293994198527    4.75763076323618
C         2.89675145545022    1.15784418288084    3.78613479946015
O         3.06898867977729    2.38259570662564    4.34210151792244
N         3.47005281443339    2.18120270611257    5.67455310214272
N         3.52644844498842    0.86998397683800    5.91439769368333
C         2.41867308156174    1.07953227134430    2.38465786034086
N         0.95822141905809    1.24805153449905    2.25818642725799
H         3.45103267530339   -2.42868625940501    0.09840761388476
H         4.82578946839059   -1.31060668324555    0.23375139902372
H         3.93048399687268   -1.42580724869938   -1.28917478505790
H         1.87568424998707   -0.35976419534960    0.02702585857437
H         3.37164422158138    0.64710590437022   -0.09087104693643
H         2.47218402002481   -2.39824459467366    1.72892125034640
H         1.04397878682170   -1.42774242572085    2.12391886010293
H         1.85604241577835   -3.01578581132679    5.33477120317710
H         3.10817489057253   -3.74383839798803    4.15567629752050
H         1.46134935418113   -3.73853099490905    3.66988805423564
H         3.55377097806979   -1.72189094323007    5.37581232230559
H         4.71693208492507   -2.27340657684657    3.28775402348171
H         5.52974610532901   -0.75791176029029    3.83231359571832
H         2.90190263486687    1.87504569369272    1.81064253764411
H         0.55730674551162    1.08194025671675    3.18842547920354
H         0.53922972795907    0.68336934064055    1.52397338004460
