32
 energy: -49.317906401189 gnorm: 0.136397063228 xtb: 6.4.1 (79825abcba525fcdf90b791dcacef51065a7a4e7)
C         3.68196990644947   -1.46225995590675   -0.49141687517680
C         3.17067332400400   -0.24029684242187    0.26204449831531
C         3.10238870845821   -0.41943525060246    1.80295276122150
C         2.45533899261158   -1.76093919214422    2.26260313480676
N         2.34009983640184   -1.62736920788878    3.73264759020344
C         1.66276785886546   -2.70696382020578    4.43666339218617
C         3.61765302692587   -1.18912616587921    4.36799875794850
C         4.78837060378377   -1.18460539325800    3.34603644502790
O         4.48113181999263   -0.27068215487698    2.25464909095202
C         3.40647112438944    0.24425445921876    4.73246889953125
C         2.82770591358980    1.09595540566753    3.83843829879464
O         2.74299513494825    2.31412739828922    4.42806701074256
N         3.23741067934851    2.17633014547777    5.73703759450345
N         3.62492424964924    0.91006542894839    5.89954098361987
C         2.34176938744528    0.83619800017358    2.46176801320164
N         0.87504382828051    0.95790520537152    2.56767508843110
H         2.94280958835633   -2.26790209087209   -0.42025805542166
H         4.63181212578590   -1.82878761525359   -0.09487213989011
H         3.92850104494075   -1.21752641494675   -1.52877699556840
H         2.29858774022169    0.12818238298737   -0.28956101659193
H         3.92907435499953    0.54911723522881    0.18948870379744
H         3.00307358854675   -2.67902171764996    2.01123902776682
H         1.43636817674560   -1.86365059611441    1.87250986092153
H         1.64058346398288   -2.48638866388538    5.51055310366816
H         2.08773177258236   -3.71275594353190    4.36178765186671
H         0.64023480763786   -2.84186702500683    4.06939931388099
H         4.02133830958411   -1.79410307141108    5.18854361334494
H         5.03085740751013   -2.16713376515122    2.92591108370916
H         5.71475244042200   -0.84302051545766    3.82159487511395
H         2.63040050222470    1.64464861105163    1.78431270990184
H         0.34265498737388    0.28849562204967    3.13523402825821
H         0.52708680081576    0.74746740626465    1.63593979368480
