32
 energy: -49.319196974441 gnorm: 0.140863274851 xtb: 6.4.1 (79825abcba525fcdf90b791dcacef51065a7a4e7)
C         3.56097523290759   -1.52208655091488   -0.36137671591698
C         3.04936331804022   -0.24702753924229    0.29801684017865
C         3.04829770425332   -0.39571214846912    1.84366990629219
C         2.16887025184061   -1.57392084430644    2.36137277185162
N         2.25727870241345   -1.74115168965988    3.82983097222793
C         2.17669890880680   -3.14225050457089    4.21760719143729
C         3.46519664936065   -1.14064299553748    4.46873139693816
C         4.62708216570020   -1.34279002341144    3.45672069576766
O         4.43640709278007   -0.51240257810922    2.27567141009387
C         3.31177510367528    0.30033878588174    4.83211770483325
C         2.86856888105381    1.13794016334539    3.85148190994792
O         2.73327009277027    2.36607606337137    4.41019239080763
N         3.17967390796740    2.28715134184916    5.74110686117658
N         3.53726197544669    1.02136579408928    5.96453060508753
C         2.57814035117651    1.03879782904057    2.40074024602706
N         1.13935938605697    1.29846342166013    2.20125101087499
H         2.84868412889681   -2.34245959813090   -0.21956609889740
H         4.48398115239591   -1.83121147893382    0.13490178297388
H         3.72832901524401   -1.28273206437604   -1.41564910559230
H         2.07034657274375   -0.02307826505342   -0.14010619364648
H         3.74586596131885    0.58039947196971    0.11400688658547
H         2.49479719284965   -2.47453254136608    1.82402480898332
H         1.11023066534857   -1.42587953356779    2.11973272021507
H         2.40456702515567   -3.20779026459167    5.28819830027184
H         2.86892771459719   -3.76185161804695    3.63904669934572
H         1.14129630772209   -3.49762412890815    4.20009544702507
H         3.64148660572458   -1.76739378637784    5.35097740454117
H         4.68312274979113   -2.40239367575890    3.18328565374594
H         5.63220185471867   -0.98128008581791    3.70180094057517
H         3.09106727265367    1.85635658538771    1.88659079779173
H         0.62354854855209    0.73109707329353    2.88367671052528
H         0.92976901927827    0.97396772803154    1.26089828664947
