32
 energy: -49.315080944779 gnorm: 0.146917741147 xtb: 6.4.1 (79825abcba525fcdf90b791dcacef51065a7a4e7)
C         4.04431279162503   -1.02831029736635   -0.41659992738452
C         2.90097796151752   -0.32503033977493    0.30486029380081
C         2.98221035162692   -0.44523584021104    1.85085626898173
C         2.21839476313633   -1.68200687974506    2.41349980922430
N         2.24633816756122   -1.71704381848541    3.89341307173974
C         1.74807995800321   -2.98973163821896    4.39535514265598
C         3.53349651521776   -1.17601832135449    4.42103509263434
C         4.67046665261008   -1.34598485005112    3.37536913163955
O         4.39844879838170   -0.56059059269674    2.17956821148958
C         3.28903253842508    0.25228730277794    4.78462368065253
C         2.82428445622687    1.12160948356726    3.84231666399573
O         2.98068486077987    2.36646266840739    4.35676819420049
N         3.55823047906061    2.24886472274550    5.63326754018095
N         3.86176254606992    0.95999958419533    5.79665476349854
C         2.32477726518937    0.88852066114993    2.46572979140380
N         0.85375301829215    0.99104647676501    2.41198115422734
H         3.93623778081446   -0.92754313225984   -1.50225483232734
H         4.03748334206652   -2.08045540855434   -0.12209268123074
H         5.01448810198664   -0.61768066461044   -0.12175878611189
H         1.89845821491209   -0.72394712662661    0.11407661605850
H         2.85961437533328    0.71829607664072   -0.03184445130520
H         2.66995158404488   -2.49467017325467    1.82890812731028
H         1.14922021718754   -1.60169787755126    2.18669555641348
H         2.10198909320732   -3.91794299769214    3.93107435463219
H         0.66396897265106   -3.01749064632317    4.24787189312716
H         1.90574341183520   -3.07842501418579    5.47513814678838
H         3.96737860164107   -1.76387794413240    5.23860472634703
H         4.78022649999220   -2.38686866916398    3.05105321632993
H         5.67497939492233   -1.04299308868167    3.69186476716131
H         2.65588777018180    1.73972825749524    1.86435016887600
H         0.40051963210939    0.19006943801493    2.86660792321301
H         0.47847494689643    1.20851781637372    1.49254578708542
