32
 energy: -49.317001588873 gnorm: 0.151966515102 xtb: 6.4.1 (79825abcba525fcdf90b791dcacef51065a7a4e7)
C         3.33640641614055   -1.53271010246192   -0.32847032528539
C         2.99275421564175   -0.20635667457607    0.33862175798771
C         3.06996647163501   -0.30635511012756    1.88626197460719
C         2.20045327800529   -1.52414770268949    2.32273952823056
N         2.30423975648307   -1.69651610545276    3.78959644343971
C         2.12333103229900   -3.09499871649018    4.15217031679603
C         3.58149929269417   -1.17421700343556    4.35852697616289
C         4.67419238600798   -1.41434270993898    3.27993136311629
O         4.48707189522870   -0.46266352134270    2.19362093027415
C         3.42949140386618    0.27585556226141    4.68440953320835
C         2.97815535178854    1.24197040201890    3.83436702147850
O         2.88411807995004    2.39679240518482    4.53886973561690
N         3.36207999813101    2.15238680033843    5.83835313611395
N         3.68274307754482    0.85829786270440    5.88844766647148
C         2.49315442026169    1.08945953328550    2.44140476661655
N         1.02335980954576    1.19163355116489    2.52250411994047
H         3.48516185117788   -1.37183784404316   -1.40200315773754
H         2.46555799274004   -2.19199366930401   -0.30092583743609
H         4.23594716755995   -1.99661194897185    0.08675207653856
H         1.94533629014689    0.01632436487910    0.10644142414669
H         3.54707146252751    0.65843129728044   -0.04671602351239
H         2.55277546751329   -2.43829560448614    1.82647818106065
H         1.14414766190329   -1.31487364061711    2.11915481374842
H         1.07138727515314   -3.20984629255126    4.43958818060795
H         2.62096446174918   -3.34178319248525    5.09518510790695
H         2.42115898312076   -3.65093576163162    3.25724678041578
H         3.80814406122124   -1.77754278873578    5.24559116079413
H         4.75034841678414   -2.46458919032364    2.97686411226187
H         5.60341754496580   -1.07796215722050    3.75364867096142
H         2.90572199991852    1.86580840385327    1.79108451802587
H         0.55972296933909    0.58510746137587    3.20867990309951
H         0.59556018870959    1.06789961824960    1.60862983045124
