32
 energy: -49.310415292997 gnorm: 0.155396388886 xtb: 6.4.1 (79825abcba525fcdf90b791dcacef51065a7a4e7)
C         3.67682130100480   -1.36320794035266   -0.56584841502176
C         2.93064660083106   -0.36090896565621    0.30647157489643
C         3.11186391320898   -0.41291893005329    1.84777196150280
C         2.42498244945816   -1.70399380585969    2.38712726849483
N         2.34558573596943   -1.76970533327287    3.86412755628510
C         2.07580240521654   -3.13138419254486    4.30343271700690
C         3.51436657121072   -1.16733726548390    4.57050867535713
C         4.70494231616206   -1.04905342168200    3.57877011102601
O         4.48290377239372   -0.32190149811110    2.33670462506265
C         3.24990946207076    0.28588810493220    4.79459513744568
C         2.87568853130528    1.16824856779490    3.82451623151875
O         2.71538344973189    2.41461629966635    4.33407554690047
N         3.10301739921489    2.27617722196398    5.67847628656398
N         3.39294648016062    1.00123014982008    5.94390337950332
C         2.47736385535069    0.95376912035820    2.41236704811563
N         1.00671852595399    1.00779389473429    2.30468015046961
H         3.44124583756446   -2.40675411616959   -0.32921286917211
H         4.76111415487078   -1.24293306916611   -0.50557026790397
H         3.34579694843348   -1.37741960082087   -1.60844566850791
H         1.85503712729760   -0.50308948004763    0.15341008777799
H         3.15946086554319    0.66192639034916   -0.01766252388159
H         2.94748964490050   -2.52838893195233    1.88370742719390
H         1.41907558245085   -1.62605955718461    1.95922360150120
H         1.35279585766655   -3.49075118545818    3.56147479488092
H         1.77935257860398   -3.34298316561445    5.33549951437797
H         3.00933085413381   -3.68709192846416    4.16789981072050
H         3.91104724581429   -1.70214571244016    5.44164418810373
H         5.02733544552109   -2.06685680649504    3.33218115614223
H         5.52146592009598   -0.45614467637015    4.00628359787444
H         2.83473949870902    1.78318868893991    1.79577007468527
H         0.67666914658814    0.22985852637480    2.88739294315894
H         0.70808465154347    0.85021007777184    1.34578809774510
