32
 energy: -49.313801884017 gnorm: 0.157129720214 xtb: 6.4.1 (79825abcba525fcdf90b791dcacef51065a7a4e7)
C         3.91591622280719   -1.35942105085830   -0.30515151470039
C         3.01555364475215   -0.27783059695326    0.27951198662024
C         2.99139342616672   -0.39263057743880    1.82786236289668
C         2.27443330018538   -1.65933817852278    2.38554027782868
N         2.21881852052559   -1.66365747659906    3.86508076102671
C         1.98450371681074   -2.99544688878922    4.40487231860503
C         3.53222236295403   -1.15753709652949    4.36175241620684
C         4.70107451440132   -1.26831514344399    3.34365619506058
O         4.39406774058188   -0.38500669145733    2.22728227545651
C         3.29791087318544    0.30143148423157    4.58203651797909
C         2.84420990535067    1.27944900699126    3.74699668308879
O         2.72738293207612    2.43049929412307    4.45425591232725
N         3.31976516815440    2.16088080525619    5.70054157738225
N         3.62487189866580    0.86435574541558    5.77756821202285
C         2.37749723963711    0.99282532515644    2.36900704660866
N         0.91071726509773    0.94742380554985    2.52330558935580
H         3.57921122031549   -2.40205241134654   -0.29963883524608
H         4.94237160758099   -1.26040193156516    0.05592334212651
H         3.97887047796750   -1.04865840490830   -1.35217179624784
H         1.99532439341844   -0.30684174384777   -0.11907236299145
H         3.29512445154116    0.72648203345173   -0.06225891959873
H         2.83232992377768   -2.46702884348637    1.89313822630561
H         1.27023907778697   -1.70576387107880    1.94912013919992
H         2.16831843601416   -3.03442492248208    5.48518594091463
H         2.58182461685575   -3.74302392196241    3.87368984019392
H         0.92200829829910   -3.24962946290736    4.33310655172473
H         3.92861268361286   -1.63810749838379    5.26407138534297
H         4.74724424187345   -2.31191422018716    3.01284432461581
H         5.66794313785114   -0.92182445287783    3.72592392937873
H         2.51857161869303    1.81668363979350    1.66388189290119
H         0.67664443391693    0.35993560725376    3.33184609754390
H         0.48499803464028    0.46017920211117    1.73918528518014
