32
 energy: -49.314021829615 gnorm: 0.152301064438 xtb: 6.4.1 (79825abcba525fcdf90b791dcacef51065a7a4e7)
C         4.01068790603271   -1.24363850874904   -0.28569808649257
C         2.96491640674039   -0.31238608344324    0.31551151381488
C         2.98273530923865   -0.35895863678315    1.86749898791198
C         2.32241361598850   -1.68465472860656    2.35338967898249
N         2.23505356435712   -1.64583743137067    3.83089201176033
C         1.79668330923175   -2.95120514076515    4.30395442792608
C         3.53851719769182   -1.16302290749084    4.37471450754216
C         4.71334102375902   -1.30319306419478    3.36716880575152
O         4.38528997055070   -0.41086993382114    2.26402799681142
C         3.38537095274143    0.29289355298899    4.67282481068909
C         2.86002650542559    1.20592255573536    3.80677307145869
O         2.81782442797319    2.42180771680870    4.40562462549089
N         3.48540497606865    2.28280583020357    5.63519914071739
N         3.74140170920334    0.98273852512211    5.79105522848922
C         2.28827763224751    0.96624655193584    2.45974377890338
N         0.82847943263897    0.76382514176367    2.53273422422833
H         3.58232166428127   -2.24241526391685   -0.42508302207851
H         4.98274259357768   -1.33898128092193    0.20400583845975
H         4.29126785790709   -0.85424667102132   -1.26877337180435
H         2.01573974989825   -0.57478001457085   -0.16489659537873
H         3.17602610787043    0.69650300603136   -0.06023647012905
H         2.87834319819723   -2.54786282498555    1.96366321957606
H         1.35766598562229   -1.81927661102688    1.85123146103653
H         2.05624192298293   -2.94320216371333    5.36929472082760
H         2.35188583124268   -3.76416962226086    3.82577306674921
H         0.71728359423360   -2.94675404416037    4.12083680430032
H         3.73165958571770   -1.75328007026815    5.27834342303423
H         4.73207860089089   -2.34311658072080    3.02238604501838
H         5.70293478216124   -0.97369160223753    3.70355003404259
H         2.38170920816335    1.77985534687237    1.73506643325437
H         0.39096919531325    0.23266247161785    3.29439112015788
H         0.37260646861235    0.58919064293609    1.64101036297785
