32
 energy: -49.312924144966 gnorm: 0.150564763821 xtb: 6.4.1 (79825abcba525fcdf90b791dcacef51065a7a4e7)
C         3.87654454961022   -1.07225433680076   -0.54716124499193
C         2.78753871336511   -0.43706222109464    0.30894584345607
C         2.91226269786667   -0.41902972115790    1.85661195350488
C         2.05549339227874   -1.60073923881850    2.40350645844248
N         2.21348922915104   -1.65417103854897    3.87467404141709
C         1.88642587294706   -2.94663108639950    4.45992439291235
C         3.56779708794346   -1.24707384289166    4.35215944948903
C         4.62317022028083   -1.40503862075899    3.22245076198820
O         4.34790818463459   -0.54199785059025    2.08220116406417
C         3.50119935665343    0.20340168045821    4.70387208705097
C         2.99533323850189    1.14030016996839    3.85183038416415
O         2.98600494448383    2.33151340622323    4.49967677254344
N         3.51601788505362    2.08668381003498    5.77873250020742
N         3.82437354269336    0.79319834845647    5.88741828240479
C         2.45571566475802    0.99305382510585    2.47852754941187
N         1.01409473732028    1.28838555655142    2.58725238695253
H         3.35600027006742   -1.12409127577202   -1.50987999383517
H         4.13525973476939   -2.03471829469616   -0.09936656329118
H         4.73144475805000   -0.39375094491297   -0.62177295852491
H         1.88143446978186   -0.97174401404819    0.00289137868595
H         2.55635099535558    0.56894704784592   -0.06268386099714
H         2.48822456706667   -2.42862863307120    1.82608502191807
H         0.99455174052359   -1.48554624737297    2.15419279534001
H         1.05350505417683   -3.31649830885972    3.85014918096408
H         1.58856526023198   -2.93348037016161    5.51297928977640
H         2.72442815601534   -3.64003844819331    4.33504835717755
H         3.97517240821582   -1.82143609381983    5.19263911757329
H         4.54010822561978   -2.44668504945015    2.89269237339280
H         5.68004072170121   -1.29185807239608    3.48934822447965
H         2.89345682752701    1.72261545493129    1.79152791811554
H         0.66960392557437    0.59542065228970    3.26163799499942
H         0.56297150039015    1.34426097125508    1.67793694139032
