32
 energy: -49.307459339465 gnorm: 0.146663299891 xtb: 6.4.1 (79825abcba525fcdf90b791dcacef51065a7a4e7)
C         3.67497566169560   -1.49666393203021   -0.40500981616137
C         3.02610174946984   -0.31347646435701    0.30305243251676
C         3.03478505243413   -0.37020128598818    1.85478002681089
C         2.47474106154402   -1.73030408523780    2.37058591701571
N         2.45953910098591   -1.77651378388899    3.85037821944972
C         2.12514222011469   -3.06875059184260    4.43196582422201
C         3.68213013699264   -1.14260561289611    4.42596644938299
C         4.80885669936066   -1.17748628250314    3.35625731654106
O         4.44154126194856   -0.32179099597811    2.23659547000758
C         3.26533931929052    0.27122773865568    4.66964030690640
C         2.76210428980925    1.18424813392292    3.79054836715502
O         2.53547342479353    2.36341751735066    4.42061102517196
N         2.94290601005385    2.17571681957125    5.75312967081455
N         3.42207804141662    0.93420240958741    5.84819061453066
C         2.39341873944739    1.01480202883354    2.36429863914139
N         0.93135732794897    1.21376790003450    2.37438994044725
H         3.10748461480513   -2.43225491264763   -0.46072543022659
H         4.55731460690885   -1.72431723153025    0.19785207235930
H         3.88198000058991   -1.23431907131660   -1.44669715169493
H         2.06412492096232   -0.17419865490932   -0.20269565114290
H         3.66044303241574    0.55736998899402    0.09605329279801
H         3.11578696208429   -2.55624116154681    2.03448961209118
H         1.42215095334755   -1.80448915714149    2.07465593378922
H         1.89209416659879   -3.80578916665699    3.65424646452075
H         1.17250790379373   -2.85509595365828    4.92659503841566
H         2.80874997195759   -3.39268938830975    5.22342000201537
H         3.94352622853180   -1.57686383399166    5.39825478062970
H         4.93763550819844   -2.22874191273676    3.07528616496371
H         5.80443619576277   -0.83677836862086    3.66245812235116
H         2.94330509183454    1.84015039813461    1.90356979218380
H         0.55872999483156    0.29195941533144    2.62951386561375
H         0.47216672165077    1.26535049877446    1.46886686648421
