32
 energy: -49.308337103856 gnorm: 0.151140878844 xtb: 6.4.1 (79825abcba525fcdf90b791dcacef51065a7a4e7)
C         3.89226940716973   -1.38552045901936   -0.35026054930248
C         3.06574756422563   -0.27224957485176    0.28204608368924
C         3.07469657773556   -0.36899071070078    1.83179210161796
C         2.45125924844351   -1.72103850694018    2.29317837771315
N         2.32545472891330   -1.71582548536084    3.76840641061710
C         1.86104571952983   -3.00867058757585    4.25091775453494
C         3.49999909383117   -1.09295941974975    4.44690004655831
C         4.69243165090497   -1.13812320668090    3.45137411549221
O         4.44479937332850   -0.25665239446439    2.31891432636543
C         3.27300334922657    0.35957406855254    4.71267378826252
C         2.71321875348279    1.20146874403908    3.79751863891852
O         2.70774307583062    2.43577647158806    4.35897690785005
N         3.31658981402914    2.36163658183563    5.62414398305070
N         3.53602482241566    1.06465174012957    5.84703195336930
C         2.28838005679636    0.91179142906764    2.40668132249829
N         0.84126230568741    0.62770740426867    2.45627283035024
H         3.30006578518557   -2.30546411280745   -0.40924655361961
H         4.77865023819222   -1.61510924650869    0.24590092833200
H         4.24905821565308   -1.02938934028575   -1.32116760076055
H         2.01660603487403   -0.25754562990414   -0.03365108978576
H         3.52326399589080    0.71486524464642    0.14099962305703
H         3.07215684540687   -2.59259422327500    2.04629897198265
H         1.57544154686570   -1.79123019777326    1.63816662206028
H         0.77367264400397   -2.99072114137154    4.39121127113906
H         2.40186715606803   -3.21474198932258    5.17982316108295
H         2.30281428858508   -3.75596521670676    3.58379940772212
H         3.78496976452603   -1.61146726586634    5.37004361558960
H         4.77772695543239   -2.20346661693666    3.20964016453534
H         5.60592809679972   -0.79859583409210    3.95263728382150
H         2.61404722439915    1.77799504107079    1.82403374129305
H         0.61879705278441    0.11057287052534    3.31461501896035
H         0.63056494812630    0.13348001495238    1.59323474725207
