32
 energy: -49.315452894980 gnorm: 0.151604538905 xtb: 6.4.1 (79825abcba525fcdf90b791dcacef51065a7a4e7)
C         3.63740231917176   -1.50306097359267   -0.46152788851598
C         2.92958034853819   -0.35973017691244    0.25548314902350
C         3.07011380056992   -0.34636607382075    1.80184124718081
C         2.33436849335337   -1.52070144361389    2.51542367776669
N         2.35472329977740   -1.64114502873220    3.99096788639011
C         2.02240449104937   -2.98644042333286    4.43783015540569
C         3.71129339205259   -1.14214969642140    4.36324662352667
C         4.81390011519272   -1.31883530393650    3.28248410568441
O         4.48220702407218   -0.47408354546842    2.14355835966164
C         3.39082086030361    0.27937090221122    4.69278084129375
C         2.88416717406414    1.18328850123583    3.80627682956593
O         2.57688337150378    2.30773529011683    4.49908055928951
N         2.86552156194057    2.05451821615995    5.85163662398000
N         3.36545950444406    0.82082876099237    5.94148554418786
C         2.63437554318946    1.10358189737768    2.34679737967846
N         1.17142248598213    1.28913856143314    2.29532014633343
H         3.08200626266850   -2.39465576085363   -0.14995966338169
H         4.67927421526777   -1.55208800925923   -0.13612076591329
H         3.60350822935057   -1.45657594668217   -1.55399228520938
H         1.87804150644262   -0.39868201103677   -0.05001262771884
H         3.31857383204859    0.62597654505449   -0.02855448098069
H         2.74061068195639   -2.41624441181104    2.02650374160036
H         1.27700596028741   -1.41481227184671    2.24747616048277
H         1.72042061406768   -3.06692203511123    5.48888348619662
H         2.78985427999085   -3.75693395505422    4.31462691809031
H         1.18146038137468   -3.39415193558132    3.86753203686754
H         4.01077196311586   -1.59342056052851    5.31661953601192
H         4.97916445353179   -2.36557819712325    3.00376530195538
H         5.75333464532538   -0.89515799129838    3.65528384650721
H         3.01096882862062    1.86822677046792    1.66171221131204
H         0.63400058485448    0.54869424540153    2.76071260320212
H         0.80780525118628    1.25561179892844    1.34655922758214
