32
 energy: -49.312376945749 gnorm: 0.146392319899 xtb: 6.4.1 (79825abcba525fcdf90b791dcacef51065a7a4e7)
C         3.75063395506540   -0.90746842154281   -0.54617838000045
C         2.63401354391068   -0.27432159408142    0.27516566457989
C         2.92993409766989   -0.47679277957499    1.78598930377937
C         2.13489492403948   -1.64363360792948    2.44627697231939
N         2.24255661961822   -1.72736901383776    3.92057308406811
C         1.80755944496362   -2.97105086790244    4.54022966860117
C         3.58682290730446   -1.29211332091887    4.40158331173362
C         4.66348652060043   -1.41068225886566    3.28724768008496
O         4.34638289149578   -0.64177588984566    2.09183729859239
C         3.44999329127441    0.16028613194640    4.72380957510047
C         3.12548436525620    1.08282794771652    3.77340706673859
O         3.14208974877015    2.31411576930932    4.34124110823742
N         3.46412375105496    2.10134975618243    5.69322614128203
N         3.63857528743183    0.79688813989988    5.91219418167933
C         2.50138258163667    0.93099396126899    2.43689193589432
N         1.06309038577831    1.23077785703941    2.57385176706855
H         3.50792784091092   -1.03055714353962   -1.60750948305895
H         4.13846751077713   -1.84994075889125   -0.15232368628879
H         4.57152080144945   -0.18502834052856   -0.57800986725887
H         1.67624637622737   -0.72715737956910   -0.00447813815935
H         2.72776537325329    0.78443133089387    0.00338655392760
H         2.62184746894411   -2.46409632873180    1.90241046740090
H         1.08127969437295   -1.59610460111319    2.14851892923651
H         0.91392715153980   -3.27328834208548    3.98124980040911
H         1.65450047387063   -2.85053856175263    5.61720145835187
H         2.60642005899128   -3.71069642773164    4.42446359592383
H         3.88890492754479   -1.75608166020435    5.34801479385702
H         4.73089064306793   -2.46817121936331    3.00824776816870
H         5.69632327161054   -1.13431473940704    3.52784815306806
H         2.84085026422564    1.76843701240718    1.82102114825659
H         0.70337667104361    0.49975713072465    3.19825946111156
H         0.64365816195959    1.23124035696793    1.64780359661100
