32
 energy: -49.314446295350 gnorm: 0.152942423227 xtb: 6.4.1 (79825abcba525fcdf90b791dcacef51065a7a4e7)
C         3.56679824544468   -1.50771481512947   -0.44902882658177
C         2.98929189211925   -0.32382958306282    0.31727676345378
C         3.09374225226171   -0.35565693680215    1.86622117115024
C         2.43257301860434   -1.66727280151232    2.38785676504939
N         2.43136463782885   -1.72596552159440    3.86728415561641
C         2.05832466001408   -3.04965655687613    4.34543120596834
C         3.65492838716265   -1.06360328888268    4.40768978006004
C         4.76444207041403   -1.12385070241665    3.32124757148739
O         4.53477062159233   -0.38168963811813    2.08949041819975
C         3.35865942306243    0.34756122278258    4.79865742733715
C         2.71114917038816    1.15646549099548    3.91205789345977
O         2.49665077336308    2.31780700482632    4.57843410522138
N         3.03708588450745    2.23056135548497    5.87348502623122
N         3.60180092752248    1.02451290441505    5.95438312428120
C         2.42319353123274    0.97730961474829    2.46851572296725
N         0.98026061470224    1.04066986782359    2.16645133744596
H         2.91207240486639   -2.38425855043805   -0.38998683590827
H         4.50025158810176   -1.92700215740891   -0.06607520670136
H         3.72641581298987   -1.28083676534383   -1.50725220126386
H         1.95912585032684   -0.17137496789669   -0.02344947798152
H         3.57348310445280    0.54333737400244   -0.01491767623775
H         3.03597752637886   -2.50885892142592    2.02219512565087
H         1.41020777097593   -1.74567921589327    2.00101616127371
H         2.70217882565655   -3.85644849873046    3.97539981041576
H         1.01354536194472   -3.11513167640004    4.02610733929268
H         2.17158135405530   -2.97647507562979    5.43192695559869
H         3.92467481341662   -1.63588311396158    5.30322614959661
H         4.91329146430922   -2.19425171249907    3.14027047971166
H         5.56509751327369   -0.67168384197672    3.91749865319998
H         2.91665608713128    1.75961067061447    1.88512411839006
H         0.52263783025877    0.21104392559953    2.56138476140010
H         0.82991538925740    0.97233496238829    1.16334841594119
