32
 energy: -49.319383473793 gnorm: 0.141107756792 xtb: 6.4.1 (79825abcba525fcdf90b791dcacef51065a7a4e7)
C         3.48894695281131    0.29592838692697   -0.50480443780282
C         3.12729934469292   -0.91242343364102    0.35042592096870
C         3.18836238199753   -0.71018970100430    1.88877713059155
C         2.14674401018813   -1.69524457405676    2.50056360001658
N         1.99979788035163   -1.61041793426608    3.97140110710349
C         1.52426090619885   -2.92186801142040    4.38841989443923
C         3.30000695934069   -1.23283647215051    4.59969944588527
C         4.47799284864408   -1.67115203537902    3.68578712057609
O         4.52516020027715   -1.00844189874391    2.38988272223314
C         3.32973695427776    0.25585936932372    4.72183496875617
C         3.27257849124443    1.05732456589652    3.61999976374370
O         3.34080521846388    2.34289298733693    4.04595736845623
N         3.64902305738591    2.29800575376943    5.41702472725050
N         3.65291864750581    1.02025689448478    5.80087772551895
C         2.67521829967284    0.75955657521646    2.29586823214203
N         1.21948364683784    1.00060416041801    2.30261264176102
H         3.51425696150560   -0.00170567265776   -1.55896484844003
H         4.45755064971004    0.69887657984669   -0.19946835163319
H         2.71741583099802    1.06034492966882   -0.37367395234511
H         3.85885279052560   -1.69903008643941    0.13442040071921
H         2.12410963614674   -1.24753586129811    0.05901364631085
H         2.39669083963967   -2.72779362525953    2.22228016948035
H         1.13147626233417   -1.56398843404954    2.10937676352805
H         0.72791426781119   -3.13057800953188    3.66408790571803
H         1.23060027663345   -2.91508541225920    5.44271393945546
H         2.18354237211875   -3.78320177177163    4.23973324415052
H         3.33213707603652   -1.69231760658935    5.59473585456532
H         4.45991596748679   -2.75143614111409    3.50323125702027
H         5.42356502650016   -1.49191493852713    4.20998810290456
H         3.08188353380198    1.51342638518628    1.61605230970606
H         0.82997696996809    0.42061611526758    3.05465561903555
H         0.78816181130541    0.74559649750174    1.41806678092513
