32
 energy: -49.311905398845 gnorm: 0.149929264323 xtb: 6.4.1 (79825abcba525fcdf90b791dcacef51065a7a4e7)
C         3.42880136273096   -1.62726514018009   -0.35166231046546
C         3.01690198025177   -0.30382890893120    0.28172345659850
C         3.11116463256218   -0.34796251058214    1.83101955576654
C         2.35975833096429   -1.59151371297175    2.39542507072249
N         2.45634132360718   -1.73370699326090    3.86600471352660
C         2.17062928831302   -3.11608326822005    4.22286021493322
C         3.70032702579667   -1.12682029577510    4.42462651885972
C         4.83411946808452   -1.17749708209543    3.36304581704514
O         4.53256008759765   -0.43866878483366    2.14486176600590
C         3.34204794798009    0.28358752910095    4.76286036472504
C         2.73401570472771    1.12744675426986    3.88090075119971
O         2.59384193175754    2.32159726758528    4.50790696561310
N         2.99086454214938    2.17848850076816    5.84907501190654
N         3.51332833467193    0.95390233534436    5.93521881783100
C         2.44743094041973    0.98871295164334    2.43264270234006
N         1.03590429048034    1.35380446867065    2.20545666667807
H         2.71508691452540   -2.43456642865612   -0.15327602379334
H         4.40278720429528   -1.83975722854576    0.09553919848158
H         3.54157040781393   -1.41702808247034   -1.41931002931025
H         1.94580607997068   -0.23444482499234    0.06145480426430
H         3.64259855059435    0.50590233351501   -0.11381435668233
H         2.68293804031727   -2.52890918693958    1.92328396459534
H         1.34199553653192   -1.47423928152480    2.00628561299054
H         1.99381570450949   -3.15865436273484    5.30420628251650
H         2.98950391317392   -3.84048584699836    4.17282270768457
H         1.21272742648957   -3.42357643467171    3.79097181019203
H         3.81687074058837   -1.74658859037323    5.32159783216072
H         5.06873472859174   -2.20991456949563    3.08066844971940
H         5.67016568385826   -0.62497914658868    3.80663347459578
H         3.07257616397096    1.76868346921684    1.98915037877439
H         0.38643532296977    0.82368095546977    2.79776514875992
H         0.72641076481665    1.26995724296232    1.24074312827581
