32
 energy: -49.314183362214 gnorm: 0.146637262592 xtb: 6.4.1 (79825abcba525fcdf90b791dcacef51065a7a4e7)
C         4.01718893406335   -1.08734550422271   -0.38448748678990
C         2.77012444875291   -0.60133101486591    0.34417030394792
C         2.90825979306255   -0.51867788575982    1.88859211502249
C         2.19330288444943   -1.72699657045831    2.56563509589892
N         2.44173812925267   -1.82700942935490    4.02180440377040
C         2.22492898557049   -3.18390635378569    4.50322513181218
C         3.68178026379703   -1.12961999646202    4.47326171698411
C         4.71329287343211   -1.27204672266089    3.31970053213193
O         4.31942771300698   -0.38677041439965    2.23253274113614
C         3.30950370136220    0.30355818063409    4.67182343486473
C         2.83774830846302    1.19627922564835    3.75522627225954
O         2.72550810300348    2.39238490636503    4.38412552647988
N         2.94916728808983    2.17751142632218    5.75549154611875
N         3.31200681804110    0.90122080266185    5.89488369154865
C         2.47912766475519    0.96654445884748    2.33485925735971
N         1.11197519046346    1.44393581756028    2.05147892116548
H         4.13796228945451   -2.17431130946634   -0.31815545652355
H         4.88466648612842   -0.54304775049008   -0.00368156867919
H         3.91491757868866   -0.84377440068431   -1.44609090449611
H         1.89724665376809   -1.23431304819144    0.14924221511251
H         2.39278838606133    0.37040105909515    0.00216836853079
H         2.58712976929365   -2.60820893348426    2.04176699346483
H         1.11419095868888   -1.77629549996522    2.38094350809198
H         1.28847617993178   -3.44617086206685    3.99661074904595
H         1.98414075226621   -3.14083708872617    5.56998872726678
H         3.08026397769910   -3.83060065155278    4.28221799291338
H         4.06650766732364   -1.59747070231647    5.38723833752957
H         4.69490405878724   -2.31503778041849    2.98429230654875
H         5.77640377925906   -1.13854271801281    3.54989878420203
H         3.09205859175880    1.60867858937135    1.69624713675251
H         0.40286211948900    0.84706770239310    2.49258812261687
H         0.88693274744119    1.45320794916493    1.06013703230122
