32
 energy: -49.316610264433 gnorm: 0.147205632466 xtb: 6.4.1 (79825abcba525fcdf90b791dcacef51065a7a4e7)
C         3.55854897942429   -1.36684057108172   -0.46090759563291
C         3.02436581545198   -0.12767558282778    0.24721708839548
C         3.03143054482936   -0.29393402746094    1.79106288731467
C         2.33251170720571   -1.55836272864829    2.37614164412712
N         2.20106488934236   -1.62037432618915    3.84958251643934
C         1.75185276983978   -2.94558259408301    4.25204110218077
C         3.54894730566879   -1.22992811886350    4.35814420118636
C         4.66185649345452   -1.32293695302516    3.27750108354994
O         4.41737434296764   -0.32645708650552    2.24404374858690
C         3.41331984111461    0.22004051093249    4.69162953426344
C         2.96879732114188    1.13948353877694    3.78792679899373
O         3.17930978901726    2.33310430126634    4.39598511231500
N         3.57429733426642    2.14221794871854    5.73179424535348
N         3.77066274476332    0.82841938163036    5.85578780058879
C         2.29797084271478    0.96316783615297    2.47730332003922
N         0.84514175554532    0.95625858170769    2.73528146543269
H         3.69977140933062   -1.14771477827233   -1.52510725516511
H         2.94216067231942   -2.26817712982919   -0.42285032496390
H         4.56046840090008   -1.59660089608532   -0.08653372578514
H         2.01163720952794    0.09336664031422   -0.10788847419726
H         3.79894893058032    0.62192344086487    0.04292966349249
H         2.80934802638660   -2.49072371565775    2.04538078488307
H         1.31370570835022   -1.51317429602213    1.97487332140760
H         0.66931315956395   -3.09526449311756    4.16210789211307
H         1.98353933630792   -3.07957783617246    5.31325979556554
H         2.30766298758984   -3.68599288444497    3.66764121730130
H         3.83256960132900   -1.70599186331442    5.30428078484273
H         4.69622155574185   -2.35101123863805    2.89994383336752
H         5.60513342213785   -1.08953447341755    3.78422711905634
H         2.43580704947867    1.80309353296909    1.79073795673827
H         0.69368912066590    0.18653309888686    3.39728977915346
H         0.25505419028074    0.71374683702541    1.94378065543914
