32
 energy: -49.318507665423 gnorm: 0.143235869746 xtb: 6.4.1 (79825abcba525fcdf90b791dcacef51065a7a4e7)
C         3.70161487857936   -1.42337189840952   -0.45579918520982
C         3.14502454651536   -0.23429903885839    0.31791589714741
C         3.16421340724437   -0.38900320787929    1.86285927977261
C         2.46267143441053   -1.69497911771643    2.34436775969720
N         2.45444515723057   -1.68590673235596    3.82490878225076
C         2.00155358058604   -2.88869718467558    4.50910592486342
C         3.69119038630932   -1.09024328262031    4.41101160072097
C         4.83660349012341   -1.18983688556972    3.36548925679988
O         4.57403756321145   -0.31739469884679    2.22940762575860
C         3.36546147155010    0.33249709733714    4.72995793900460
C         2.77611482873236    1.13237671664716    3.79587148156818
O         2.47927364702160    2.30616178646594    4.40652266183654
N         2.89342511481196    2.18658372957370    5.74481203783621
N         3.45481218850789    0.98890132179958    5.91917331299898
C         2.36434912682779    0.90396665306145    2.38977505792661
N         0.89091620702130    0.88247508727158    2.31331350862740
H         3.05173490135578   -2.30237618178815   -0.38171619985743
H         4.74334624097911   -1.52488311072398   -0.14230000130342
H         3.63402914476231   -1.20773325597251   -1.52618242209570
H         2.11934532990440    0.02419737945960    0.03201275691212
H         3.58897359203305    0.72323489126988    0.01850135532022
H         2.95910087593035   -2.59767309771060    1.96387594839987
H         1.45710979173374   -1.78740759037898    1.91854305748132
H         0.98602626099000   -3.10382069941282    4.15582021019837
H         1.96333983211222   -2.82505872556550    5.60103465700870
H         2.56302652071463   -3.78776631466536    4.23510144589991
H         3.97681753668377   -1.71726828676247    5.26395327001897
H         4.73098332386259   -2.23354295909878    3.04896250184937
H         5.85650683701852   -0.96662989042137    3.69864860226523
H         2.68419101588188    1.80619555245060    1.86106891814018
H         0.48471114728086    0.20293999390041    2.96668915166084
H         0.67180277424553    0.59165432797170    1.36415524435231
