32
 energy: -49.313728384772 gnorm: 0.147245876118 xtb: 6.4.1 (79825abcba525fcdf90b791dcacef51065a7a4e7)
C         4.20273353478588   -0.62563999235305   -0.49754430003523
C         2.88539973559756   -0.67363904902769    0.26707968207148
C         2.95940256226901   -0.48347272606128    1.80640160286757
C         2.21251258675807   -1.70125136097497    2.42990396081419
N         2.25719536425766   -1.64900050461089    3.90889854917481
C         1.52467847458269   -2.75617967093306    4.50682385749416
C         3.58797991072309   -1.21857629050392    4.43006809894109
C         4.61381492889681   -1.43996042232656    3.28391862857310
O         4.37339860848257   -0.54841352294114    2.15780947682520
C         3.40611037573177    0.22700566685363    4.76057157310685
C         2.99905872702594    1.08573153693859    3.78253619259182
O         3.03667406824102    2.33605884064101    4.30603180669317
N         3.39853846599051    2.20588944257393    5.65841817486396
N         3.70093126221323    0.92726182727563    5.89008704631968
C         2.42303708198703    0.90003763214860    2.42882051889071
N         0.95491550998473    0.98339200540362    2.55122935242355
H         3.93153798983861   -0.42882486162822   -1.54071139302038
H         4.67993127569040   -1.60690068260949   -0.44097339234204
H         4.91882165967107    0.12926893223230   -0.15973009352153
H         2.44804021937286   -1.67080411114403    0.14477943847607
H         2.13100082017891   -0.04517202069602   -0.22233069046453
H         2.74951899061932   -2.55486306581603    1.99511227134084
H         1.17151151928829   -1.73016115517991    2.08857579461840
H         0.51793544817114   -2.80002775703280    4.07446927906366
H         1.37266036789727   -2.67376038868632    5.58752550676842
H         1.97607760609360   -3.74780859927005    4.39927615631411
H         3.74491516290953   -1.82249355346908    5.33168219724901
H         4.70767248315278   -2.48738763136590    2.97609698330241
H         5.56334054868842   -1.13482207902677    3.73813338216551
H         2.77584495246650    1.67461713253326    1.74223534895372
H         0.65749135632676    0.08691607086237    2.95314974083130
H         0.61785010886511    1.00982119169896    1.59249203961968
