32
 energy: -49.311933846552 gnorm: 0.149600282344 xtb: 6.4.1 (79825abcba525fcdf90b791dcacef51065a7a4e7)
C         3.62391618097860   -1.29009022077046   -0.49828410168933
C         2.79155944054682   -0.28796474210838    0.29244269835719
C         2.94619113547651   -0.37317346093380    1.83516112801686
C         2.15705435213635   -1.60109266548349    2.38202691299706
N         2.27510324041505   -1.66464926287103    3.85653588799530
C         1.82623889548737   -2.90300244033210    4.47697411351163
C         3.63206336073890   -1.23705406519536    4.30785816209789
C         4.74804483918356   -1.31889685806553    3.22948246859299
O         4.37020793757193   -0.64450857085798    1.99529552250917
C         3.51385763504386    0.20466644718535    4.68133594370417
C         3.07345185376420    1.18951729989658    3.84721010362250
O         2.86552635067105    2.28619614184514    4.61717336943697
N         3.26103799594648    1.96023736403702    5.92643278406646
N         3.63743993992675    0.68049870341573    5.95074302639630
C         2.60536505746219    1.07646596463427    2.44473250211332
N         1.17201504986785    1.41029262486043    2.33805386653760
H         3.26927049204618   -1.29851266702102   -1.53493076346214
H         3.33042421268948   -2.29281725361378   -0.17861011408016
H         4.69186962909212   -1.24199615711440   -0.26601158636443
H         1.79006839596756   -0.66387640365488    0.05519816273930
H         3.02751122738193    0.75678492679646    0.05488021021101
H         2.67086885243665   -2.43904481172251    1.89222747016495
H         1.08340937156046   -1.50782766655083    2.18299924550517
H         0.80670181894832   -3.07454192685391    4.11159346994943
H         1.75245588281813   -2.66332170607665    5.54230397635143
H         2.49156152336548   -3.74011299657301    4.24192659501072
H         4.08200389582639   -1.84079980310244    5.10491356736422
H         4.98622754276759   -2.34639847477069    2.93253702516391
H         5.67446756229013   -0.82211955125922    3.53927691623198
H         3.22844100912888    1.76650019769750    1.86899374883359
H         0.54192487334105    0.99354772700841    3.03302169303976
H         0.80583916410159    1.04380112858664    1.46336076549192
