32
 energy: -49.313230998800 gnorm: 0.148083222060 xtb: 6.4.1 (79825abcba525fcdf90b791dcacef51065a7a4e7)
C         3.58068879350466   -1.50088585510049   -0.46327461141212
C         2.92675612247541   -0.35605888755443    0.30096708134588
C         3.01594533627759   -0.42939103535687    1.84945644883148
C         2.26483215184112   -1.67781017882046    2.40340884052927
N         2.32802367706621   -1.73933327130342    3.88137143798543
C         2.10707667262705   -3.12216206311265    4.28000452730536
C         3.56874821761258   -1.12624867368342    4.44047796317954
C         4.74596162577548   -1.23480975457403    3.43182037780434
O         4.41082577740031   -0.41592027735380    2.27515201765372
C         3.29699376374855    0.31023961337774    4.74815831447056
C         2.83976722140194    1.21225582085261    3.83330038288751
O         2.65990561992681    2.38193795513100    4.49532337616966
N         3.12115338711325    2.21248740584899    5.81266001185564
N         3.58772359966089    0.96598660774729    5.90511782441038
C         2.52070603823683    0.99879819527081    2.40100673282091
N         1.09252654991312    1.30269682593401    2.18825853732346
H         3.20392503223255   -2.52191305378154   -0.33665182896818
H         4.63667406581168   -1.46003675574964   -0.18575532940536
H         3.60186533798546   -1.33857458861716   -1.54493756003949
H         1.89600370019985   -0.05899798529835    0.07762178573202
H         3.56031476906990    0.53286050031211    0.19125463257715
H         2.65460301348167   -2.57889730533917    1.91127745990200
H         1.20712416229129   -1.65349643545522    2.11760021945952
H         1.71447579933785   -3.06302118247137    5.30213542469250
H         2.97521912109308   -3.78824012652057    4.25793184122146
H         1.27879049393889   -3.61491732035724    3.76059151088290
H         3.91416891304786   -1.75065206053249    5.27297881841586
H         4.97950110114780   -2.23703515375030    3.05542865250638
H         5.63834384364378   -0.85518772411080    3.94227159617327
H         3.18674531409957    1.73548498164815    1.94326196293462
H         0.55809518833361    0.62666239814695    2.74595989084566
H         0.79507175101463    1.27063379928823    1.21667147472719
