32
 energy: -49.310547412826 gnorm: 0.151184058334 xtb: 6.4.1 (79825abcba525fcdf90b791dcacef51065a7a4e7)
C         3.53246852568324   -1.31066721105550   -0.53741937060102
C         2.68703644690209   -0.40248237963676    0.34732183190338
C         3.02731402770941   -0.37432793986451    1.86210568512390
C         2.19307684745410   -1.52668081877127    2.49906391018592
N         2.41446674592249   -1.76241194871920    3.94390612761580
C         1.91300532838112   -3.05142879576943    4.39878346017700
C         3.74401771350857   -1.25681081038827    4.39615818904448
C         4.76964152794612   -1.41590883085872    3.23952919055655
O         4.44537953417941   -0.45668423914601    2.19285825723087
C         3.45832408052392    0.19163621485083    4.62506129022360
C         3.04908617491127    1.18632934674132    3.78675092695978
O         2.91124138010727    2.31778163659772    4.52132253708327
N         3.18976867693863    1.96747953398164    5.85419529288486
N         3.61322387246392    0.70250824183547    5.87729892439110
C         2.57667557527944    1.07908917399690    2.38526705347108
N         1.17975570026350    1.54878833788770    2.31239482974261
H         3.40223882689920   -1.11152019039577   -1.60693397609018
H         3.14606900782098   -2.32099079442125   -0.38336689700750
H         4.53249320202181   -1.14090181061154   -0.12764079035385
H         1.59360657956741   -0.47279083258243    0.35415570964433
H         2.94816049787902    0.60644784407014    0.00456085920280
H         2.43463408312110   -2.45016611727577    1.95601913135741
H         1.12800422321723   -1.31710224228601    2.34832891092858
H         0.99431111008646   -3.37178627259224    3.89305954711157
H         1.58134901084033   -2.92358936645462    5.43390648056015
H         2.50396032460074   -3.97190680449320    4.35243650706897
H         4.07096006974129   -1.74833600051034    5.32015190930435
H         4.65970199698851   -2.45861071135561    2.92116892767561
H         5.78407660549414   -1.15107122210698    3.55859323350612
H         3.20944283446723    1.73004013426614    1.77558316684605
H         0.52831919691795    0.91030266391142    2.78317794948177
H         0.95263836374299    1.72137192928937    1.33662772898753
