32
 energy: -49.306056607779 gnorm: 0.156695167510 xtb: 6.4.1 (79825abcba525fcdf90b791dcacef51065a7a4e7)
C         3.13593236456912   -1.65555836417983   -0.37170324738205
C         2.80257127796154   -0.36203247111612    0.36177015761720
C         3.00234343550174   -0.33483314242952    1.90141392024364
C         2.10376909802779   -1.47805183233663    2.46284049496212
N         2.34681098619910   -1.86952761090529    3.86990447321247
C         2.36558352867700   -3.32191376771046    3.97071828147601
C         3.54056437118789   -1.22390851497564    4.49119268277050
C         4.71825108246862   -1.23701163926336    3.47734389568214
O         4.40158996344115   -0.44316360323501    2.29823035727858
C         3.39544078509681    0.24746214061491    4.70572426661662
C         3.08034185631317    1.23055032048338    3.81471099369772
O         3.03229373166202    2.40949458165809    4.48296449213243
N         3.19282882141001    2.10506807522033    5.84619293579723
N         3.36711968364940    0.78683959224201    5.95526543773612
C         2.69757192544810    1.16982307378746    2.38340785896398
N         1.29076508259158    1.60452656868802    2.28728189570455
H         3.21628453359524   -1.51911582992730   -1.45586548902806
H         2.31897601648205   -2.35362057366041   -0.17401164013706
H         4.11629782222535   -1.97514015721433   -0.00627312330713
H         1.84164642936607    0.08437426315349    0.08262267544578
H         3.52449742659885    0.28760549656476   -0.14852798588019
H         2.18244699851428   -2.38737846019975    1.85209709771553
H         1.06847239145023   -1.13899536738206    2.34357038712421
H         1.38584987446608   -3.56331689603462    3.54149670915999
H         2.41879569677317   -3.64928673771278    5.01370145711333
H         3.11369786758889   -3.76737461878465    3.30698250290348
H         3.77377966822576   -1.78214592433381    5.40565117471073
H         4.84896700328733   -2.29781393614376    3.23593344284506
H         5.52057538949044   -0.68309159251297    3.97781132421056
H         3.29860353547572    1.78777964636183    1.71055076633730
H         0.67476202403116    1.40008812382278    3.08252737626629
H         0.88164492537020    1.32161218502622    1.40067659159099
