32
 energy: -49.307087554550 gnorm: 0.151936523521 xtb: 6.4.1 (79825abcba525fcdf90b791dcacef51065a7a4e7)
C         3.69531694906806   -1.35994605260100   -0.46445922553772
C         3.09760592115891   -0.21901451995300    0.34999694092803
C         3.10644685483070   -0.31773895784147    1.89961849332806
C         2.49220030157434   -1.68752821476359    2.31909815134382
N         2.34736865649355   -1.70597232457351    3.79247363314625
C         2.02773426713649   -3.01286435027456    4.34907805029232
C         3.57319806625236   -1.13703504787928    4.42613193746472
C         4.77367143151328   -1.22063049037539    3.44283008846680
O         4.51338469471501   -0.38686419439050    2.27755661168452
C         3.24397413637684    0.29121123273560    4.71551131195491
C         2.68370458415036    1.19356694512550    3.86022975272253
O         2.63173165114045    2.41200147344097    4.45310160310222
N         3.14329474421599    2.25382878291609    5.75314906413990
N         3.53861137176565    0.98326884015986    5.85011627282343
C         2.32106468179925    0.97917741151190    2.43848480762860
N         0.86195168415170    0.83299809163530    2.27436999974473
H         3.78977610943008   -2.27066967578138    0.13732208913545
H         4.68899210498014   -1.11041717895316   -0.84411106447399
H         3.14010777022282   -1.61277357964304   -1.37253914212713
H         2.06050103166569   -0.18958481582879   -0.00231853949809
H         3.63394724333303    0.70937233957864    0.11751710464844
H         3.15165656334855   -2.54316169342082    2.12140794046914
H         1.52014526606278   -1.92092709049509    1.87003481037413
H         1.28165203477309   -3.44908809007734    3.67420412692300
H         1.53260990140833   -2.58419755980866    5.22595612199721
H         2.85279462828250   -3.72778266423969    4.43167843531002
H         3.83685846860236   -1.57219582410693    5.39740481758606
H         4.91058207360456   -2.26902396022930    3.15509101545613
H         5.76330608903528   -0.99401880528032    3.85549185509197
H         2.62853239458859    1.80090300433289    1.78573934629655
H         0.53227188495444    0.25212184992621    3.05383407493803
H         0.57104166223168    0.50529814020940    1.35705167271323
