32
 energy: -49.315963199544 gnorm: 0.147994274445 xtb: 6.4.1 (79825abcba525fcdf90b791dcacef51065a7a4e7)
C         3.87790435345464   -1.45745298412164   -0.31469913616365
C         2.88573460752724   -0.47950870348535    0.30299518085992
C         3.02713301213688   -0.37429314001311    1.84574850239331
C         2.17459631002845   -1.53215175152231    2.44752024805228
N         2.26104424135898   -1.73509677222163    3.91158710921480
C         2.09740972767320   -3.14105996225386    4.25280938990579
C         3.56138323412324   -1.19855757341115    4.41070074261452
C         4.71410156784295   -1.17887721257200    3.36865459646319
O         4.45191180829921   -0.41939498062263    2.15406784661568
C         3.30395270604619    0.24050267435486    4.71868031324770
C         2.78717881006165    1.14548305983457    3.83912950747515
O         2.77022940718649    2.35094416889918    4.45990093844110
N         3.23007783707001    2.12919909362562    5.76994190976152
N         3.58060485102916    0.84896174464255    5.90456581227727
C         2.42328335720746    1.00704092134557    2.40831045428889
N         1.00754969854258    1.38028859828001    2.22474250168637
H         3.35766043925683   -2.41903696750643   -0.38669439249979
H         4.76805612384740   -1.54002801095312    0.31347415630862
H         4.19160690231449   -1.21749908664461   -1.33489566910748
H         1.85655811611960   -0.82499704150163    0.15462936186021
H         3.03855133012369    0.52783763074669   -0.10383581816045
H         2.31558780459338   -2.46373186671837    1.88329288492805
H         1.19437282168493   -1.08861271064862    2.23905212034263
H         2.20572639935758   -3.08966911171684    5.34276862860666
H         2.84291935842545   -3.80744564454058    3.80787791686370
H         1.10248671322828   -3.39763342085009    3.87471696978955
H         3.90497742064321   -1.80412845984876    5.25774245339810
H         5.04473774232732   -2.19559319684797    3.12858065885490
H         5.53368874484020   -0.64539044735118    3.86331416522271
H         2.89184240996637    1.81653992438054    1.84173320703951
H         0.46198475462135    0.90040726356885    2.94982389056750
H         0.70459336094576    1.17493812345169    1.27630301670975
