32
 energy: -49.307477131390 gnorm: 0.156922799263 xtb: 6.4.1 (79825abcba525fcdf90b791dcacef51065a7a4e7)
C         3.71688974758707   -1.47593331231507   -0.29267390602108
C         3.23037124354975   -0.17306014701298    0.33033760841293
C         3.07420488570546   -0.30343131658475    1.86974238067831
C         2.37941340735831   -1.62722890630547    2.31066114387877
N         2.28470539118422   -1.69372611782605    3.78672354228714
C         1.80152282408479   -3.00059178997159    4.20930856180218
C         3.54648276657804   -1.17672785190179    4.39376625526622
C         4.73127132538428   -1.14041066972577    3.38879651889985
O         4.47498671857408   -0.24255466596573    2.27123197980935
C         3.26248345755687    0.27083367766911    4.63025363115797
C         2.80823481905722    1.23783331849982    3.78277252940787
O         2.85255251896612    2.44775420236179    4.39343471364696
N         3.38054988411193    2.19005883946322    5.67079554042558
N         3.70281958129836    0.89815809420086    5.75526537927878
C         2.23287352760532    0.93988931472304    2.44897418850390
N         0.77364914816138    0.72984848154157    2.51110186145387
H         2.97316182001469   -2.28003273111144   -0.32048929891770
H         4.56841165375383   -1.86654006804833    0.26957808360562
H         4.04406442994957   -1.34488336147664   -1.32832382986696
H         2.25719857276459    0.06357964294595   -0.11408945657650
H         3.95699637624649    0.61235322172060    0.08794783647488
H         2.90126271963533   -2.49336544931203    1.88222981104935
H         1.36105985713665   -1.59909968066240    1.90669491980864
H         2.00817376609004   -2.89087959326338    5.28058970280647
H         2.40513119317490   -3.88689781235700    3.99036320584534
H         0.79704404424604   -3.25231688470760    3.85390390037484
H         3.86098728166129   -1.55046706954451    5.37542741065069
H         4.87680879528937   -2.16636424897373    3.03255886248377
H         5.62145336878739   -0.86276282211892    3.96456292474533
H         2.55806405401991    1.82603969514462    1.89685589239725
H         0.47047201972234    0.30533445324242    3.39515032338603
H         0.32178766398276    0.40354527631453    1.66090410621239
