32
 energy: -49.314023089207 gnorm: 0.151010902113 xtb: 6.4.1 (79825abcba525fcdf90b791dcacef51065a7a4e7)
C         4.04228695672826   -0.95068889342893   -0.41812181082080
C         2.82137890827967   -0.36705577821472    0.28264777773245
C         2.99233319259022   -0.40346551517802    1.82556728522477
C         2.22073054378749   -1.64252110691952    2.37233527281823
N         2.28006597018242   -1.70804623388088    3.85028569988120
C         1.59219785448532   -2.85797938894157    4.41987552910218
C         3.57791593842287   -1.20386092448499    4.38810802405361
C         4.69804898989205   -1.37315945799459    3.32431904659117
O         4.40104677436452   -0.51382856137097    2.18672606188486
C         3.29425768633943    0.22205247552087    4.73209240645904
C         2.86798168876632    1.15541354896350    3.83388293197463
O         3.07297203470792    2.38391242547478    4.37012019458291
N         3.61268232466570    2.18492603702448    5.65306837099857
N         3.85434290228242    0.87941332457432    5.78435878691946
C         2.34811548339820    0.92551061088157    2.46431619023969
N         0.87548400120257    0.84534842581951    2.51168041803025
H         4.00228613251300   -0.96671512730848   -1.51293864341198
H         4.18165657515536   -1.99809996115634   -0.14009904201420
H         4.94902786855519   -0.38701661446148   -0.17962105684680
H         1.90365032267493   -0.85990839556610   -0.05713067484860
H         2.72345636840715    0.68661095712844   -0.00684943777085
H         2.77724943379932   -2.49426956667604    1.95895418486218
H         1.17249775324273   -1.58042086761162    2.05868658990490
H         2.31750208624856   -3.50669397121339    4.92533356005594
H         1.15409325330535   -3.45324240760952    3.61269227975249
H         0.84924732356566   -2.54936481042849    5.16246368386817
H         3.80290500350244   -1.76937227948612    5.30015492328934
H         4.63782634076853   -2.41747419937935    2.99805669090773
H         5.72434448326525   -1.07566164931336    3.56769522377095
H         2.51427850687105    1.74579678264406    1.76049345845425
H         0.58312307251245    0.40444416425413    3.39133872884035
H         0.40563558173898    0.44926209894709    1.70183666799041
