32
 energy: -49.311926220577 gnorm: 0.142066315626 xtb: 6.4.1 (79825abcba525fcdf90b791dcacef51065a7a4e7)
C         3.16169793116164   -1.78604462925699   -0.27532128888658
C         2.69249306667089   -0.49363071133511    0.38182036144254
C         2.96303545365299   -0.46465625658133    1.91058421741329
C         2.03610982899616   -1.42233596301476    2.71881876182242
N         2.53001276784669   -1.89830517717470    4.03094104290442
C         2.72138274484970   -3.34167552287079    4.02996350841203
C         3.70661105311992   -1.11608900795105    4.51221492368129
C         4.85202109837746   -1.04734088640680    3.46420893313058
O         4.36937752505050   -0.79319982324076    2.11393296198426
C         3.26874447993186    0.29494110393662    4.73421304062405
C         2.80023736442645    1.20603118485905    3.83417397591101
O         2.31453839384002    2.26859580265736    4.52252989399540
N         2.52169834681733    2.01070131328972    5.88906346039478
N         3.20353489531116    0.86663687387635    5.96790462430901
C         2.80445048863299    1.07303016566272    2.35731167323170
N         1.69017719983798    1.91913474806008    1.88846747119835
H         2.43851182582019   -2.60066495900802   -0.15752324844653
H         4.21032562733886   -1.96037557850539   -0.02277590690991
H         3.20629094861049   -1.45677854687437   -1.31761848277011
H         1.66729493590251   -0.17711675108577    0.15963449742642
H         3.31775787245047    0.26826430152095   -0.10002085965115
H         1.95116623123356   -2.31032184919534    2.07824223637743
H         1.09821626980898   -0.87131357576068    2.85206257814289
H         3.12491313512304   -3.54697264097303    5.02866315187976
H         3.47339169319134   -3.68271290283244    3.31163590423511
H         1.76157718490742   -3.83506962757934    3.84559658481762
H         3.98699897197157   -1.48902929938550    5.50446029458354
H         5.36103173827091   -2.01314542546699    3.37041698602413
H         5.56842643032623   -0.25826968342420    3.71945271143328
H         3.69359286257372    1.46201063570985    1.85336124858321
H         0.81215753781861    1.38741223321115    1.89324903495122
H         1.90249847976834    2.25930576292182    0.95428752520050
