32
 energy: -49.310650592871 gnorm: 0.144429230052 xtb: 6.4.1 (79825abcba525fcdf90b791dcacef51065a7a4e7)
C         3.64731099128654   -1.27390370413901   -0.57070126778164
C         2.95125384621921   -0.20343866238531    0.26112270864279
C         2.95527789061615   -0.36945969260451    1.80500497600563
C         2.21397509992094   -1.64249481656878    2.31435395658781
N         2.17840657536798   -1.57678494237802    3.79305906570809
C         1.79206991316784   -2.89792134579629    4.26769996341795
C         3.47280106490039   -1.18955581754291    4.42746172351122
C         4.62532879532210   -1.30744071057776    3.39170594565894
O         4.32674894601165   -0.39018162979515    2.30071393736369
C         3.42465629198970    0.25704403371266    4.79766063818865
C         2.92354123208227    1.13563850473491    3.88299685561591
O         3.26340837414605    2.36313676412511    4.34831318558493
N         3.74571534882887    2.22390063949478    5.66164181400266
N         3.77677108806125    0.91825667539860    5.93427678699776
C         2.33414477568264    0.92050140464910    2.53943549224519
N         0.86576073630555    0.80182518477346    2.62356096529552
H         3.65452204180267   -1.11585379228324   -1.65488253799230
H         3.13179208310025   -2.21072867953888   -0.34622473319993
H         4.70871482986290   -1.28744937551297   -0.30607599719925
H         1.89318803958264   -0.16678250069330   -0.02124572447596
H         3.37665014805346    0.78876661717618    0.06573151931691
H         2.87970316423304   -2.39757803879418    1.87534585954562
H         1.19346363889753   -1.72328314756892    1.92313340176853
H         0.70007411431138   -2.97408012339778    4.33196252930463
H         2.29279717977413   -3.10515883352709    5.21856448195515
H         2.05086798648072   -3.68998448614687    3.55754845821373
H         3.73649999417836   -1.84578663060450    5.26536190557162
H         4.87969314731401   -2.30570652612763    3.01830093100597
H         5.52664837168329   -0.94110689104945    3.89612830083734
H         2.59497502412580    1.84127243510621    2.01029062387834
H         0.67475596846820   -0.01512175327124    3.21498729717768
H         0.48068677459976    0.61129382003428    1.70220074190784
