32
 energy: -49.318283039411 gnorm: 0.146261726138 xtb: 6.4.1 (79825abcba525fcdf90b791dcacef51065a7a4e7)
C         3.11378950861970   -1.31779337953174   -0.57366539485436
C         3.11542941873282   -0.12349347928304    0.37289001724807
C         3.06853871429514   -0.37376347313397    1.90465953021320
C         2.33124323724970   -1.65657295389044    2.39494500315267
N         2.30936075826522   -1.68285738864638    3.87514160778459
C         1.92662538017350   -3.01567413165577    4.31904986990241
C         3.61687044468371   -1.18165731333346    4.39194632964263
C         4.79099126073068   -1.32605203312140    3.38417774996837
O         4.47701167797831   -0.43146617813582    2.27877706369068
C         3.46554937966864    0.28493491559343    4.63324581165805
C         2.91951640931569    1.20361708573844    3.78617708506708
O         2.94979701438847    2.38787118676867    4.44603027699283
N         3.49365284897432    2.14752448990273    5.72011547680466
N         3.71477822599925    0.83840690868500    5.85170261982375
C         2.36231924563955    0.97265219760526    2.43154952525353
N         0.89490417206279    0.91475797258205    2.57526480103277
H         3.50887634174180   -0.93472760040241   -1.52110816755299
H         2.07978039665814   -1.60231962729173   -0.78261626457197
H         3.84922431094144   -2.07461072764615   -0.28530575742963
H         2.31436431737674    0.54812540944846    0.04455843227758
H         4.05316881929360    0.44564924481607    0.39112278753967
H         2.88427246531671   -2.45995419204197    1.89015802727898
H         1.29839371817069   -1.72397065484699    2.03480150677378
H         0.97310857941518   -3.27621071010273    3.84438044592870
H         1.87340300250211   -2.98726064533232    5.41183464038958
H         2.58568178101283   -3.80763140489509    3.94877435547182
H         3.85428928172044   -1.68942812081309    5.33431240566041
H         5.01270540017427   -2.32642789110823    2.99590188528660
H         5.71905600313613   -0.90907905052601    3.79142303132296
H         2.64408616677944    1.78408345314899    1.75476838730590
H         0.68693567428345    0.08604061952627    3.14416450912017
H         0.51763282026605    0.86787720719143    1.63241945827693
