32
 energy: -49.312483740565 gnorm: 0.142591205858 xtb: 6.4.1 (79825abcba525fcdf90b791dcacef51065a7a4e7)
C         4.12528028623354   -0.02442788689173   -0.22311708073669
C         2.87522638579441   -0.67446167734318    0.35752343796074
C         2.85085759138519   -0.62903370845490    1.90945581521750
C         2.00799888501168   -1.79357902341402    2.51195729686539
N         2.05194846011189   -1.84951366966620    3.99083911961247
C         1.86689909268354   -3.16685043706000    4.58271913902046
C         3.30564762630092   -1.23086972677677    4.51370457994258
C         4.49616344636692   -1.50086445822961    3.55204872709212
O         4.23006732891455   -0.67671809759929    2.38125696681358
C         3.23173947293527    0.25678627396038    4.62960754962998
C         2.90284205373488    1.15091291140686    3.65389323547764
O         3.25010560726971    2.37112443956321    4.13271761299517
N         3.83266727525377    2.18174890131120    5.39826003129172
N         3.83594049375187    0.87760060693737    5.67966181723148
C         2.40398648914259    0.87020856954925    2.28598333720402
N         0.97201919787292    1.13089712967116    2.04344681253315
H         3.84169095621269    0.38240243736772   -1.20012628454715
H         4.93182603855778   -0.76146095028490   -0.23064763080101
H         4.44802904859891    0.86924408065927    0.31907456418460
H         2.96597271518711   -1.67847786018455   -0.07177303825472
H         1.99622407061235   -0.20626335789336   -0.10264643476273
H         2.37137156686730   -2.76635536121437    2.15455119560233
H         0.97079783271396   -1.68713121889706    2.17445654090550
H         0.93063080564264   -3.65017074938500    4.27909465188002
H         1.83439809428543   -3.02237802053410    5.66710371491898
H         2.55408521742273   -3.98303831054401    4.33722331077182
H         3.49845185095801   -1.60409293194165    5.52651438338608
H         4.70226636472403   -2.55214744738191    3.32184700370184
H         5.35407942651857   -1.01091720897443    4.02633895876689
H         2.99617924144187    1.54876119866347    1.66572526187224
H         0.44367570101282    0.39699423377946    2.52915239770707
H         0.75622822347071    0.90847212949277    1.07522669706367
