32
 energy: -49.315965830262 gnorm: 0.142956973039 xtb: 6.4.1 (79825abcba525fcdf90b791dcacef51065a7a4e7)
C         3.81493440420034   -1.24839240612951   -0.46067342614609
C         2.88275072872883   -0.35114582996838    0.34450001161360
C         3.03225171170138   -0.38597959764575    1.88968210481451
C         2.29427532131329   -1.66915798589870    2.37797371224286
N         2.32577827533320   -1.78536156205531    3.85366202129342
C         2.03602782730925   -3.12549043968204    4.34360145474477
C         3.56374084242532   -1.21068438056444    4.45786813529702
C         4.77027603457611   -1.18968747664803    3.47866489027148
O         4.43082185535959   -0.40004452936236    2.30307457983268
C         3.33588202097056    0.24001773073912    4.73274995712709
C         2.74190195579906    1.08509154812457    3.84241726820671
O         2.81561288216734    2.34172157995244    4.34662814220872
N         3.35341311813395    2.24532496586455    5.64212704336982
N         3.67056580659330    0.96397282126753    5.83590862505450
C         2.35221231169747    0.97406525508470    2.41600763694441
N         0.89050856782274    1.09539743311441    2.25472069050199
H         3.71911404721568   -2.31314433393951   -0.22066802168553
H         4.81666693223494   -0.90436707654825   -0.19240302013566
H         3.38485789236940   -1.14364625028306   -1.46109861932783
H         1.81774467942600   -0.50827043420922    0.14040976038378
H         3.03140791813842    0.68848791334544    0.02720871041884
H         2.78930519580824   -2.50832944150606    1.87121013562813
H         1.23342266928632   -1.70209872722984    2.10497101553103
H         1.97926776200842   -3.03157479588116    5.43462977991650
H         2.78895011100917   -3.91407042185749    4.24837464979436
H         1.07202185600954   -3.44230977886160    3.93253745442935
H         3.72167020530508   -1.81320542948431    5.36024245852131
H         5.22567858927952   -2.10964882524056    3.09532849309638
H         5.58200385182251   -0.62023643736498    3.94540123761489
H         2.75959747746515    1.85703118293372    1.91575320561210
H         0.37525428875928    0.40983974932742    2.81880748499686
H         0.54283458941100    1.04246283272769    1.30088131994670
