32
 energy: -49.308988696102 gnorm: 0.146260054805 xtb: 6.4.1 (79825abcba525fcdf90b791dcacef51065a7a4e7)
C         4.03253484248104   -1.15158655695137   -0.43127997448220
C         2.91861101625159   -0.35607724257563    0.23854143158863
C         2.92463207784853   -0.35751742424059    1.79131742265798
C         2.22560079036994   -1.65311553014906    2.30353359827149
N         2.25190853428718   -1.68994164773007    3.78343339804867
C         1.70051823661684   -2.85574606931000    4.45931072596658
C         3.54559986698220   -1.22976115641767    4.36864007399877
C         4.63832936470790   -1.33940088661518    3.26912727469096
O         4.33394674723335   -0.45322653578692    2.15430713797876
C         3.35830495010312    0.22012519400757    4.67648165153968
C         2.92425895475900    1.16465004134881    3.79379754414948
O         3.13080216460117    2.38005656468769    4.35851676743007
N         3.53582631032384    2.14919684779591    5.68497748384958
N         3.72314896869464    0.83667834729766    5.83399376799608
C         2.32078260829887    0.97966673109069    2.45199773087908
N         0.90258560272427    0.95740541715308    2.85885705465544
H         3.77979014681860   -0.99959845872723   -1.48650532486670
H         4.06424829824343   -2.20542881403894   -0.14457237960200
H         5.02091796391049   -0.72898310563034   -0.22807256006355
H         2.01158808339877   -0.76020301529456   -0.22467623341285
H         2.99024437854084    0.70085815778264   -0.04670804607373
H         2.73883622581306   -2.54480791809081    1.91941552143473
H         1.24905887608435   -1.77570478136318    1.82149452310783
H         2.19036881805872   -2.96472615169579    5.43427452341882
H         1.85757124237762   -3.75243358909439    3.85177114326935
H         0.61444688636760   -2.72206145283940    4.49442572473924
H         3.72043312118674   -1.78006333660397    5.30076321490543
H         4.88880477826772   -2.31914302855218    2.84718585441570
H         5.58507073048764   -1.05796583130967    3.74398982871642
H         2.41933176023148    1.82698425098816    1.76775577027277
H         0.59129389645253    0.08127849529526    3.29379304118290
H         0.34393791801996    1.07111714450573    2.01714972669411
