32
 energy: -49.309338962047 gnorm: 0.146102882609 xtb: 6.4.1 (79825abcba525fcdf90b791dcacef51065a7a4e7)
C         3.57428514942453   -1.51889551429149   -0.36346577170710
C         2.93401241123643   -0.29664395531549    0.28342992390954
C         3.14138479677036   -0.33997634611128    1.82169863698935
C         2.40299088360648   -1.59684343840923    2.37364443378805
N         2.40110755044368   -1.68097107907030    3.85184289494303
C         2.16452682762799   -3.02960049549431    4.34698897806809
C         3.65650604439136   -1.07710476163182    4.38774428830269
C         4.85171843573966   -1.17059245629015    3.39893974953141
O         4.55117621449442   -0.42275332819269    2.18601406774936
C         3.31606389670277    0.33699053777648    4.72899184528442
C         2.76343164314255    1.20743589023722    3.83648031070457
O         2.52580831712130    2.35598745145370    4.51702816647168
N         2.91130418491891    2.12212156226251    5.84877081522796
N         3.47818198958312    0.91854773652352    5.94907061421469
C         2.44454148173193    0.98791153854105    2.40506584005479
N         0.99499996210486    1.02223464684882    2.13127010089034
H         3.03705244340030   -2.47091749560287   -0.28919619417309
H         4.51800443442063   -1.67397088786491    0.16486749084873
H         3.68868935616629   -1.43078730484435   -1.44787194532936
H         1.86889931963097   -0.33422489128827    0.02906673465861
H         3.49338441081024    0.61801655866009    0.05081400948820
H         2.78402404935713   -2.57765861478057    2.05917990016120
H         1.34822553166751   -1.52774211841198    2.08430211370683
H         2.27000475056583   -3.77003465034434    3.54510598830156
H         1.14698621991084   -3.05666830517257    4.74910456947021
H         2.80338479105673   -3.22049374087047    5.21536440983517
H         3.95329089211881   -1.59472417236235    5.30765820781568
H         5.07424276177631   -2.22138079347381    3.18215884559568
H         5.73202000762804   -0.70096426264795    3.85230257612222
H         2.99090777359352    1.83625856719692    1.98359556421465
H         0.38903327820470    0.23107613446527    2.37732456582826
H         0.73477139959923    1.24287467296100    1.17362304470146
