32
 energy: -49.316292289445 gnorm: 0.145859484566 xtb: 6.4.1 (79825abcba525fcdf90b791dcacef51065a7a4e7)
C         3.79299234734583   -1.21280264663863   -0.57586802062498
C         3.06009319525756   -0.20817950982928    0.30499137379636
C         3.11815829893411   -0.43413240740102    1.84015435280396
C         2.41788540791360   -1.75674928492646    2.27591472764249
N         2.30994555035050   -1.65709666557223    3.74920018624216
C         1.61823249826878   -2.70900278568696    4.48061521973561
C         3.55348164693156   -1.17128095180313    4.41663654091047
C         4.77204122975449   -1.22890201671414    3.45393232067627
O         4.51377112006266   -0.43060143357812    2.26364225479885
C         3.46439488352355    0.29581376595289    4.68442925643498
C         2.87704473919887    1.14918035910367    3.79761492805331
O         2.87446565361677    2.35401994162754    4.41981735481966
N         3.25361157958475    2.16914222984994    5.76105089153362
N         3.58055274296151    0.88387322741183    5.90663083353940
C         2.34430110532389    0.83846934231495    2.44910754137301
N         0.87117551513991    0.75827883732916    2.42112017977107
H         3.41342377370405   -2.22138722428169   -0.37796488558659
H         4.85543182495765   -1.30060401669274   -0.33648596293770
H         3.74419763468569   -1.02307409065832   -1.65216271882180
H         1.99782663777191   -0.19025134668916    0.03694809348438
H         3.47492324626601    0.78492652864427    0.09222982877516
H         2.96460113780360   -2.66646913911105    1.99380778902253
H         1.44197674607670   -1.83709677518149    1.78380652691076
H         1.26567642610648   -2.30045587597847    5.43517181733414
H         2.36126287546405   -3.46151364103547    4.76248712940531
H         0.82255083944677   -3.13416183903197    3.86030392982443
H         3.92658019918338   -1.79423775680534    5.23820516833524
H         4.92157091868349   -2.25713183780357    3.10600778524527
H         5.66987046614970   -0.79784251454596    3.91121748964600
H         2.60295364353424    1.68752498982097    1.81032011869152
H         0.46701285743980    0.03726462840087    3.02977548192763
H         0.54692187039932    0.48052566023668    1.49851432535174
