32
 energy: -49.314482763602 gnorm: 0.151107115560 xtb: 6.4.1 (79825abcba525fcdf90b791dcacef51065a7a4e7)
C         3.76676949977204   -1.35249882479193   -0.50054963386691
C         3.10345068439237   -0.21072082826522    0.26015611810752
C         3.07338182730519   -0.31294475892908    1.80928418465947
C         2.45295934547186   -1.64099324362875    2.33932927899909
N         2.21406858381350   -1.64467009109716    3.80051694356535
C         1.77041105589366   -2.88003788249243    4.43057710657382
C         3.51594166436550   -1.20578311840939    4.38393355537083
C         4.70990646370187   -1.23907417602103    3.38977722268285
O         4.47074928415060   -0.41243182645383    2.21493937252024
C         3.31444379955551    0.24635281620648    4.67153769435048
C         2.82407591083942    1.17757896346977    3.80435167814483
O         2.88875916492298    2.40666867891220    4.37350498335402
N         3.39750580341378    2.19908118292388    5.66769318206380
N         3.62999039724792    0.89490512543369    5.82604777339547
C         2.29949394434603    0.95096785090687    2.43603502338819
N         0.84105139656016    0.77755812050618    2.57811677362437
H         3.19287288649806   -2.28006198715078   -0.60423211862626
H         4.69208608150795   -1.52761059053852    0.05344999470850
H         4.10249034005504   -1.01104695291019   -1.48416046357629
H         2.07407757285058   -0.08582905394974   -0.09392282409238
H         3.70843057300177    0.69849863574936    0.15560778798577
H         3.11025395340067   -2.44279338430264    1.97717880310005
H         1.52001117136167   -1.78694504966311    1.78315511859850
H         1.21860678935887   -2.60373184008534    5.33697198951502
H         2.51526675419430   -3.59447730398132    4.79469906887285
H         1.07925099115124   -3.31812242128327    3.70322896164142
H         3.63485990081370   -1.73808826340652    5.33512355409343
H         4.99547983006541   -2.27956632276496    3.19875074667218
H         5.59045611700466   -0.84700982350254    3.91125321243663
H         2.40827100386344    1.78089864155131    1.73231034186679
H         0.79692689549680   -0.02483378411057    3.21677982193234
H         0.28045615014900    0.61776269146466    1.74523790820387
