32
 energy: -49.314659278034 gnorm: 0.146887665138 xtb: 6.4.1 (79825abcba525fcdf90b791dcacef51065a7a4e7)
C         3.25134058200533   -1.58426589672852   -0.39155536069991
C         2.90605042941190   -0.26136125553613    0.28151232268067
C         3.09043449445978   -0.23598499183526    1.82310571665830
C         2.27938200574817   -1.46422683815724    2.33613638627329
N         2.40347421591225   -1.66072096062967    3.79837538466820
C         2.02310063087049   -3.02810503997205    4.12321089227998
C         3.68470698225241   -1.23421346444855    4.43430319970373
C         4.79087463274169   -1.31010867740424    3.34543218269268
O         4.47573057264016   -0.41032475425422    2.24459122457485
C         3.40416951792531    0.20080226696843    4.74097057235716
C         2.92386897937657    1.15610254047582    3.89458581325530
O         2.85430622719879    2.33834078013691    4.55508161879439
N         3.33584095921733    2.09081392476846    5.85265379894112
N         3.69397613138766    0.80762625366961    5.92454990994895
C         2.47668846260256    1.09757585513560    2.48198767186268
N         1.00751508075280    1.21153979065402    2.40547222717963
H         3.73821757872665   -1.46097008682590   -1.36532624515092
H         2.28510834278151   -2.04794970977611   -0.60411847237392
H         3.85913210538536   -2.33394245463980    0.12357826086527
H         1.89390420235647    0.01984090698434   -0.03003897680174
H         3.55787283874958    0.51591849913334   -0.13630914349510
H         2.74328754056777   -2.31081036229627    1.81253288136273
H         1.24050549631631   -1.29183857148521    2.03275246324619
H         0.95536472349277   -3.12112706601623    3.89153958123014
H         2.14589522901665   -3.13765248926044    5.20521798456732
H         2.64151385550899   -3.81890142526942    3.68633358684640
H         3.91395913373013   -1.65506358529018    5.42049859310067
H         4.94349200144671   -2.32334977736513    2.95720856111907
H         5.71871520136938   -0.89094670462335    3.75093739518334
H         2.84358602948718    2.00075630756977    1.98651088454752
H         0.54206027630800    0.69211223936927    3.15861037385497
H         0.76145170856295    0.79754656013218    1.51017828573229
