32
 energy: -49.316218711192 gnorm: 0.145187159451 xtb: 6.4.1 (79825abcba525fcdf90b791dcacef51065a7a4e7)
C         3.94678527621871   -1.29151317683801   -0.44538862263420
C         2.88704401950823   -0.47679492519228    0.28639326077023
C         3.08353689863000   -0.40524884909894    1.82503660341164
C         2.14475081201783   -1.47010894051394    2.46872774820337
N         2.32550139499292   -1.64741555696491    3.92750918565998
C         1.82563540495243   -2.89834006209524    4.48001552205353
C         3.67340926267538   -1.16121493479535    4.34538901447631
C         4.74808675186762   -1.39774138015382    3.24806018327092
O         4.49912559470450   -0.44682081078018    2.17356210571485
C         3.47499182999587    0.28601749766137    4.65870209191335
C         2.87367131287119    1.17489991531342    3.81730084974453
O         2.56877320652788    2.24939210669551    4.58625117318429
N         3.10161367843086    2.04822011385014    5.87172760640533
N         3.64537582437128    0.83011116454008    5.89483098387024
C         2.54821978691383    1.00691404748775    2.38039746825335
N         1.10862460503507    1.25649918469926    2.17403423018458
H         4.14445589358806   -2.29737164964168   -0.05853482466530
H         4.88639372082107   -0.76620203906325   -0.25837344914380
H         3.70090710952048   -1.33048379845550   -1.51066480532887
H         1.90438716963471   -0.93014149749600    0.11480871262809
H         2.81005418998007    0.54053397775727   -0.11699924774141
H         2.27083686989153   -2.43381608326241    1.95741231076738
H         1.06068761530599   -1.34648029980396    2.36602984408597
H         2.05038019692341   -3.00910555782995    5.54753856194373
H         2.27156620411375   -3.82350762066705    4.10182349483529
H         0.73873176895620   -2.96259591500076    4.36526671563045
H         4.00609028842324   -1.73594223315989    5.21789379063073
H         4.64359788991453   -2.41077789574966    2.84370110649112
H         5.74448010011950   -1.18987262619208    3.65427469408294
H         3.05697633234445    1.75324488445712    1.76395359273847
H         0.45738829474423    0.74872526181008    2.78372852280976
H         0.86744711518038    1.10351969026878    1.19837060498924
