32
 energy: -49.314002340714 gnorm: 0.146184970803 xtb: 6.4.1 (79825abcba525fcdf90b791dcacef51065a7a4e7)
C         3.57641121630676    0.38012170445683   -0.42635483173383
C         3.29253993255406   -0.93185019206843    0.29508048668375
C         3.12696763608723   -0.74603700764825    1.82779405697100
C         2.14617584551352   -1.78097762957934    2.45750031940630
N         2.13526767293501   -1.71273855540404    3.93647838593143
C         1.40458627974445   -2.75299324424853    4.64634897425285
C         3.45211182962214   -1.30975786300234    4.51215036247675
C         4.63876604513903   -1.65958987120515    3.57168432911817
O         4.48181780818171   -0.88237649091241    2.35017529911649
C         3.44491966482719    0.17645586460137    4.66424666034312
C         3.03457965575305    1.00672724670317    3.66328469186813
O         3.05001043716675    2.27070132454346    4.15411291335961
N         3.56449410074043    2.19209999803672    5.46023970352452
N         3.71793905541105    0.90608267410078    5.78057473642424
C         2.65759918803216    0.73242079757573    2.25563737739212
N         1.21200668171569    0.99709688053452    2.12326790206514
H         3.51901420246504    0.17493493624957   -1.50110353523552
H         4.52268831982802    0.77780656083292   -0.05192607760391
H         2.79366334451566    1.11355073926675   -0.21146940363521
H         4.05962109115046   -1.70224192694289    0.15847183263583
H         2.35921835556104   -1.40381956110203   -0.03623023443450
H         2.39130947064508   -2.80163304522037    2.13463091762577
H         1.11335188387876   -1.55940423692655    2.16560340684682
H         0.35888139132008   -2.60797960783376    4.34994217656535
H         1.27704090743657   -2.36537618113857    5.66188021043673
H         1.85291912282927   -3.74868066977584    4.56722991596345
H         3.48964647090345   -1.73222263149134    5.52327220799146
H         4.55533897687132   -2.72839961053422    3.34507269942605
H         5.61177082469526   -1.45883594357639    4.03426286997554
H         3.22669535143865    1.40334132973452    1.60614435295033
H         0.60384675771874    0.50696411956513    2.78928712248379
H         0.74848200282482    0.82360643552462    1.23527311320216
