32
 energy: -49.310989009269 gnorm: 0.143190276584 xtb: 6.4.1 (79825abcba525fcdf90b791dcacef51065a7a4e7)
C         3.47666807708253   -1.41782757693434   -0.46072395158868
C         3.22905394613075   -0.11647371085415    0.29259367520559
C         3.21213478551688   -0.35151872577446    1.82739633735032
C         2.58601367711249   -1.72050212992288    2.23167521380062
N         2.29515006867253   -1.61644555035948    3.67968152649903
C         1.67480818400047   -2.78088876869262    4.29546502151437
C         3.51804463558862   -1.14152538060428    4.39161545130631
C         4.73450958417769   -1.15173647265655    3.42460160322964
O         4.60213078451156   -0.28266166062530    2.26358372132493
C         3.21399099182584    0.26879434651007    4.77964367426041
C         2.81056187551498    1.18634099046210    3.85497754383248
O         2.80565456294400    2.42622687583815    4.40401289955817
N         3.31980753011098    2.24035312044070    5.69936477183186
N         3.54967240419334    0.94365206836738    5.91320808873974
C         2.39476917807453    0.87906439117606    2.46518375279314
N         0.96046480527902    0.53556229148372    2.51090124139315
H         2.52497861592328   -1.93177660705204   -0.63572214419783
H         4.20631724518990   -1.98848196195864    0.11872074768058
H         3.81480713312236   -1.18682235225732   -1.47516305454355
H         2.25972859847966    0.22853475782979   -0.08417731556292
H         4.02430146381986    0.61520621317205    0.10328725175649
H         3.30555947599986   -2.49372610601518    1.93092423448628
H         1.69306955911374   -1.97459192565669    1.64934104295465
H         1.78117125692745   -2.70649365885332    5.38428866309695
H         2.13092614101500   -3.69364336961958    3.89966968701310
H         0.58384474414240   -2.86793908035275    4.26585706880632
H         3.70524914374148   -1.75206022988976    5.28293715423000
H         4.87199467126951   -2.19136553260253    3.10689665432264
H         5.62474093181793   -0.77157098544441    3.93839309677442
H         2.56694017176708    1.77977057256855    1.86942247135613
H         0.89322798676236   -0.05216878338836    3.34978241354183
H         0.53187793113034    0.01725688388188    1.74856167971171
