32
 energy: -49.312649632711 gnorm: 0.155179724985 xtb: 6.4.1 (79825abcba525fcdf90b791dcacef51065a7a4e7)
C         4.09340453338250   -1.23590798215463   -0.36425317953595
C         3.04042491624110   -0.34718350309481    0.28668830528256
C         3.00512840699889   -0.40537728669705    1.83798430590892
C         2.25749753958441   -1.64783020561885    2.40977401003897
N         2.25343723113641   -1.64730703358338    3.89036002346017
C         1.83775994782899   -2.95174441605458    4.38593735900311
C         3.54620451640492   -1.14741693864569    4.44419470799964
C         4.69021917256390   -1.25513147647737    3.39794660832667
O         4.37153071436817   -0.30808387388135    2.33855233912773
C         3.28323357569402    0.30262915627190    4.68961043884241
C         2.78263865509085    1.17888842899410    3.77242518766620
O         2.84914200422437    2.42329010998181    4.30704906900414
N         3.31219996137137    2.32617235311072    5.63105219262317
N         3.63330800700412    1.03972737910887    5.77920548324788
C         2.31158299851090    0.93876586177385    2.38704545044773
N         0.85593036366139    0.69714657852771    2.38993726924949
H         3.69439884989272   -2.25550706759947   -0.40539893715585
H         5.02464213646484   -1.22028964978852    0.20701128604048
H         4.21162155982241   -0.83279017486682   -1.37435658892878
H         2.04914474141398   -0.57396753341991   -0.12136987188068
H         3.26742758941117    0.68303463789985   -0.01452825788798
H         2.83986558551235   -2.49258787151174    2.01823272103922
H         1.21066905334904   -1.72966976701974    2.09596463420328
H         0.81771896628640   -3.25841343169950    4.12544711234596
H         1.93254921525220   -3.10822974200450    5.46498593905718
H         2.31844794181064   -3.82955482590313    3.94204147754335
H         3.95641206320466   -1.69519137004964    5.30088931902954
H         4.90826163668301   -2.24433783943124    2.98010043852546
H         5.55315093043479   -0.79399446124646    3.89162746956339
H         2.46790280593615    1.84413677336057    1.79399096220829
H         0.61648039081787   -0.01304248593431    3.09133974297229
H         0.65173793657049    0.24198701926366    1.50414719802709
