32
 energy: -49.314703272024 gnorm: 0.142773443382 xtb: 6.4.1 (79825abcba525fcdf90b791dcacef51065a7a4e7)
C         4.12213476049307   -0.20961137643279   -0.46666297000816
C         2.85295564327949   -0.64035207910266    0.25857416741011
C         3.01723347308839   -0.63985808133970    1.80264805953954
C         2.15488720184023   -1.69951332653938    2.55303081993009
N         2.20300271004319   -1.67787309654847    4.03268222764727
C         1.62440895205487   -2.83157986179591    4.70657490364666
C         3.58963107290140   -1.28480644395659    4.42079381239628
C         4.66666299730232   -1.59967891586753    3.34568238362234
O         4.42480430923294   -0.82321519145907    2.13763182238066
C         3.49869586840284    0.19425112362915    4.61088794017638
C         3.01600734114797    1.06870871509114    3.68245373234964
O         2.80033572902545    2.28646465049717    4.23863461183499
N         3.17757670878324    2.13957525903221    5.58509350593688
N         3.56357993669486    0.87836797268530    5.78598685445987
C         2.58916265624415    0.83543682230032    2.28166212384040
N         1.14297171041609    1.12838690294747    2.28664452762183
H         4.18483336391849   -0.34182374615614   -1.55251267241990
H         4.98177950511973   -0.75607669824971   -0.07147053585426
H         4.25448879282212    0.85910668856244   -0.27401760455042
H         2.58064045128142   -1.67265253711493    0.01204007668278
H         2.09737188497694    0.12200232241265    0.03159399201731
H         2.49456667188432   -2.64690444548882    2.11355322623673
H         1.07932567637295   -1.59611847256478    2.36999851663200
H         0.68929887174656   -3.09221183195941    4.19664866178574
H         1.41391972958867   -2.48768288782701    5.72404611181980
H         2.15460978263159   -3.78921951338897    4.68491869073925
H         3.84885541527937   -1.67626605767758    5.41165951005755
H         4.61090870761756   -2.64271495829541    3.01457146532134
H         5.72539893331251   -1.46736894647004    3.59586558393710
H         3.03524152208069    1.54102903666645    1.57526332410910
H         0.77855443621468    0.97658404285494    3.23418142277699
H         0.60800221172715    0.52575029405748    1.66686588189120
