32
 energy: -49.319035642382 gnorm: 0.152641606078 xtb: 6.4.1 (79825abcba525fcdf90b791dcacef51065a7a4e7)
C         3.43795847124773   -1.46544309550378   -0.51342920363890
C         3.06135309457658   -0.25598649601175    0.33374563501891
C         3.11486968525879   -0.38368475170148    1.88034860972959
C         2.44846814035535   -1.71095504251061    2.35347351545546
N         2.27340330629525   -1.67167723001234    3.82315418206174
C         1.99678094343361   -3.04331359226706    4.22569007793935
C         3.53758063056518   -1.12312720593821    4.39658140225450
C         4.77620769324876   -1.14683267359410    3.45836603299966
O         4.52102412152689   -0.35063964801161    2.26600043873167
C         3.30695067017350    0.31628359274951    4.72357167651042
C         2.91110613211010    1.21692560004639    3.77921716987785
O         2.86702935866902    2.42141592479416    4.40053932183410
N         3.14635262460757    2.21556105775015    5.76305210551012
N         3.47332117393780    0.93238476056538    5.92599566766515
C         2.40628557989477    0.96093421525565    2.40865017351331
N         0.93199923073291    0.93222481567534    2.46313263531930
H         2.81863391660499   -2.36673120462427   -0.44562330353263
H         4.40910827222446   -1.88555396685662   -0.24109592842074
H         3.66744920211806   -1.07182884991815   -1.50800949618434
H         2.03909102795280   -0.03804773604343    0.00501806081427
H         3.73483891085342    0.57711824073253    0.09717767062560
H         3.02541968817579   -2.56529882944888    1.97492862656999
H         1.43345043600628   -1.70108490031499    1.94035662901544
H         1.77653683842357   -2.97615833064730    5.29777560025678
H         2.85689217112577   -3.71700447627776    4.29024835010180
H         1.15384674588776   -3.40579039721744    3.62842286406128
H         3.79827839484202   -1.64007612209629    5.32773832358459
H         4.98827359879784   -2.19930146176459    3.23926635739585
H         5.64182880161540   -0.69232224986973    3.95348190029370
H         2.72578194907321    1.81759118177306    1.80872776141685
H         0.55042981572573    0.24888467806122    3.12730223387010
H         0.58695438218671    0.73511999016429    1.52740695138227
