32
 energy: -49.310680363709 gnorm: 0.145598904515 xtb: 6.4.1 (79825abcba525fcdf90b791dcacef51065a7a4e7)
C         3.50081604583052   -1.50236551134658   -0.34445553995344
C         3.09146875625271   -0.18066005547485    0.29417704164372
C         3.08799538611286   -0.34729770578365    1.83799421382926
C         2.40994773927414   -1.68035819881068    2.27706793120309
N         2.35037920268035   -1.72701743242750    3.75572482143479
C         1.81973551211658   -2.98604313391979    4.25892749627945
C         3.60489607190149   -1.19752395102728    4.36703021380037
C         4.85979812106990   -1.09717133102069    3.45590056269544
O         4.49590293169046   -0.44425449364104    2.20607753719460
C         3.39853567296519    0.24080777960161    4.71435355009683
C         2.81183258746419    1.13692180245384    3.87030762504649
O         2.80832688653656    2.37479484448314    4.42387692992453
N         3.23319641078555    2.17488287409111    5.74915422016823
N         3.56700367377678    0.89175237538742    5.89798057308374
C         2.36504766410921    0.94407075727762    2.46958602606708
N         0.89082577928326    1.00169674248927    2.44385866469317
H         3.98529095095788   -1.40649890945047   -1.32250178817912
H         2.57747018228033   -2.06472486221030   -0.50248994192364
H         4.25369057042073   -2.03682813216512    0.24233043918513
H         2.17382682649399    0.15925999404579   -0.19873927989627
H         3.81702390917132    0.62950118732291    0.14988729366552
H         3.08450358707698   -2.39148227759076    1.78174017663194
H         1.36877664980522   -1.77655124149854    1.94884000029794
H         0.73187007410552   -2.87523846214369    4.34051041044973
H         2.24520184380570   -3.14874903803777    5.25407758062440
H         2.12549068704286   -3.84736252471273    3.65618518317418
H         3.87911626590560   -1.74359666080954    5.27744803029938
H         5.27685851762515   -2.09806436312561    3.29797358133102
H         5.48165171989152   -0.37922440666237    4.00259030312881
H         2.67901903025742    1.85246632943329    1.94796790900851
H         0.61864781565099    0.08463618631767    2.81613453040695
H         0.62873452251538    1.06148680021935    1.46343929431577
