32
 energy: -49.311140605982 gnorm: 0.143650867718 xtb: 6.4.1 (79825abcba525fcdf90b791dcacef51065a7a4e7)
C         2.82777041680138   -1.79705580486254   -0.22096441161620
C         2.77451262985567   -0.41089354892175    0.40993962444648
C         3.08030389803862   -0.43721745574299    1.93209283415157
C         2.07792203921107   -1.31152086508631    2.74474821631632
N         2.61183898142520   -1.86797153513699    4.00864973035773
C         2.85762610463102   -3.30289614417522    4.03148468293553
C         3.79434020431096   -1.06748462617755    4.44313998066320
C         4.92440463588274   -0.98030168204979    3.37995583477925
O         4.47552277223691   -0.85653484266577    2.00011362141639
C         3.17706571747840    0.24565418854805    4.79902610279581
C         2.78295991966604    1.15218936786465    3.85959598132917
O         2.19417714998004    2.19857291371534    4.48983185258213
N         2.30573066725861    1.91689570614269    5.86280401788288
N         2.84957721342980    0.71093535434282    6.03569419548603
C         2.91399795566112    1.09827434208159    2.38353653748755
N         1.94534765158676    1.97209745626182    1.69399860968852
H         2.30202003232956   -2.43875561844758    0.49477903985950
H         3.86075987852099   -2.13725702781734   -0.32578042040515
H         2.19235497575802   -1.80388443202927   -1.11146355075965
H         1.79047570873943    0.06507788928935    0.33443209380314
H         3.56790637868067    0.22603378647546   -0.00050036091143
H         1.73549371000577   -2.15781089365563    2.13433142975029
H         1.18132843896145   -0.70107191240631    2.90125989679305
H         3.35952241072356   -3.56405168841507    4.97078364383734
H         3.54015390010100   -3.69345401163303    3.27027586824309
H         1.93575003741556   -3.87747182328876    3.89487237443954
H         4.17722556058218   -1.48109118512186    5.38366171757291
H         5.49090322425345   -1.90375095625657    3.54423594570227
H         5.61501167483669   -0.16731929409797    3.63123436402160
H         3.93946500903836    1.46712597583309    2.29291754853841
H         0.99908077947565    1.58270703954433    1.77538860519267
H         2.14629478820134    2.01530040184143    0.69838695482663
