32
 energy: -49.314223075691 gnorm: 0.145968308713 xtb: 6.4.1 (79825abcba525fcdf90b791dcacef51065a7a4e7)
C         3.51622274715130   -1.52562699989464   -0.38907827935492
C         3.08717901664428   -0.24096116179383    0.30940383067456
C         3.14564224115677   -0.35306664397161    1.85703623751823
C         2.35740587201284   -1.57261293808183    2.42358270570307
N         2.33513376015706   -1.57153687178810    3.90400646447163
C         1.98948974567341   -2.84200776604192    4.52559742008957
C         3.70655115030493   -1.13493375265501    4.29955961554381
C         4.80182545464736   -1.41017448498828    3.23202798849564
O         4.57347453463271   -0.51449723225120    2.10668545192176
C         3.42345794258362    0.29563150405340    4.62414793142880
C         2.89035290884148    1.24619711633377    3.80446602714815
O         2.58687954377671    2.34124692027963    4.54443276729869
N         2.87727672554039    1.99018233682551    5.87456882761650
N         3.34698905501343    0.74188037918194    5.90793051663600
C         2.56207471825741    1.05564125719815    2.37102569233226
N         1.09109331895525    1.12882235927948    2.28063167371921
H         2.89739701935775   -2.42393983938740   -0.28626989176881
H         4.49641453564737   -1.71865032928503    0.05336555823980
H         3.47332846867848   -1.35434496624330   -1.46871278967276
H         2.08583930348417    0.09900995905923    0.02249395696989
H         3.83665318294732    0.49432864266483   -0.00879175609564
H         2.82620150367483   -2.42001651076214    1.90569229656636
H         1.32147226454207   -1.50404149616936    2.07263621198479
H         1.88021951257656   -2.69310642972392    5.60646423404615
H         2.68722342282231   -3.62692034998164    4.21754149072511
H         1.02275377181513   -3.13826302293112    4.10570457379900
H         4.00561730434555   -1.61620846668328    5.23827512869617
H         4.78807819274415   -2.49386570214111    3.07049926732412
H         5.79321546561892   -1.10540973113429    3.58598228568689
H         2.93424544826196    1.89770913689171    1.78089297247589
H         0.57969012479549    0.41486753311063    2.81205005999470
H         0.65134543075869    1.24137690148793    1.37099323790814
