32
 energy: -49.318523419647 gnorm: 0.149424229701 xtb: 6.4.1 (79825abcba525fcdf90b791dcacef51065a7a4e7)
C         3.42711581558807   -1.40727699363083   -0.42101691136403
C         3.08083822587007   -0.13009813870010    0.33477942239183
C         3.09274908803073   -0.33359438018993    1.87412962904257
C         2.53943172097794   -1.70440380715426    2.36840287425207
N         2.35406391537288   -1.69444725215843    3.83731109007134
C         1.95314161260349   -3.01456709173081    4.30259197066326
C         3.61065929577422   -1.11643407031001    4.39832715097494
C         4.82304216599865   -1.18359122245705    3.42846905754799
O         4.49655959392564   -0.36621069186353    2.26826394592885
C         3.36753211244830    0.32137445941421    4.72330725306243
C         2.79523542948848    1.18216542645557    3.83383000402286
O         2.73860867749680    2.41262133283336    4.40088608142037
N         3.26860224019630    2.29174435871034    5.69754886755324
N         3.57220281461510    1.00575612216771    5.88210615522102
C         2.30088642879456    0.94018266140423    2.45691581595135
N         0.85210493766171    0.67041961096262    2.38226395640179
H         2.61539172149279   -2.14315300198060   -0.41257301546110
H         4.39845225546602   -1.72410423357383   -0.03382636725720
H         3.53766322028770   -1.17108642443332   -1.48345816450899
H         2.06639899424486    0.20979730276410    0.09821443179722
H         3.84440397868743    0.63664229486722    0.15398256951236
H         3.18329754552780   -2.47565878991287    1.92492211320893
H         1.59875794985834   -1.84414384710589    1.82376584184176
H         2.13076569989772   -3.13799001249575    5.37758086559999
H         2.54132955552115   -3.76824427747446    3.76984048470917
H         0.88606174876609   -3.06976693855618    4.06395173677817
H         3.86486473540035   -1.65728276669795    5.31762851480288
H         5.02268563553962   -2.22502768133423    3.15238980580173
H         5.70174145315059   -0.79793953949489    3.95778908693586
H         2.65020386671357    1.73153345288860    1.78789620162202
H         0.50664659029550   -0.11458017300851    2.94627112611355
H         0.51345996518888    0.67340133071672    1.42372365677329
