32
 energy: -49.312070161245 gnorm: 0.160031651880 xtb: 6.4.1 (79825abcba525fcdf90b791dcacef51065a7a4e7)
C         3.44957792482316   -1.52948042162809   -0.39815921236018
C         2.83563486217472   -0.32517249315903    0.30543045392121
C         2.92988013677326   -0.32280379272497    1.85535427800021
C         2.12146956829674   -1.50235363215510    2.47561161396466
N         2.26638937176899   -1.73588187375551    3.93047054669243
C         2.04678198040997   -3.16829244048047    4.07158736257521
C         3.57322559430860   -1.24235150035568    4.45628143111199
C         4.65603396891830   -1.29447723011012    3.34281118751273
O         4.34040564564790   -0.43860430428386    2.20762926075431
C         3.39178430320027    0.20908236080065    4.76031284308728
C         3.04942391662997    1.17798906023916    3.86384000038331
O         3.02883833018217    2.39342963732357    4.46472383356998
N         3.38870563748367    2.13641797807914    5.79936960480823
N         3.76867239292228    0.86103260302060    5.89433203348591
C         2.55146196809150    1.11596826636923    2.46848462598520
N         1.09665564723688    1.36261130846512    2.47279864940447
H         3.81692220835416   -1.25243480568182   -1.39253575426330
H         2.91614441686742   -2.48023268436514   -0.47102429590998
H         4.37172731244067   -1.71850105610832    0.15924534099505
H         1.75911960720289   -0.24844921656255    0.11620227344602
H         3.35326933813765    0.56497558225429   -0.07312205787801
H         2.38173480039293   -2.39793659097048    1.89572731037010
H         1.04441491005940   -1.33486889478146    2.36191883123110
H         1.03580586533649   -3.45217809618949    3.75580121620098
H         2.23733755111275   -3.40311008357692    5.12342753764345
H         2.74074438147532   -3.70497832495032    3.41657585944990
H         3.79486163265696   -1.76914804646076    5.39202476778306
H         4.77465753051600   -2.36302134420724    3.13112958766426
H         5.58371864458905   -0.82591096271205    3.69046928614969
H         2.92791629508879    1.82983726205591    1.73056918929434
H         0.53276480337535    0.54445305006839    2.73031448312249
H         0.75394465071213    1.58028095056721    1.54078045314099
