32
 energy: -49.313884246400 gnorm: 0.156678397924 xtb: 6.4.1 (79825abcba525fcdf90b791dcacef51065a7a4e7)
C         4.05813468490085   -0.96317616710577   -0.54858047303620
C         2.84921178796931   -0.63588919048619    0.31958468181036
C         2.94187850998991   -0.53283073127013    1.86617559017687
C         2.11705878848819   -1.65516808836818    2.56590116790211
N         2.27181707001905   -1.77778939604959    4.03326805145494
C         2.11011756715118   -3.16547855776124    4.44328444081631
C         3.51100939693730   -1.12656878256393    4.55113318232851
C         4.62999829965999   -1.29024961602302    3.48526290463564
O         4.35271437523178   -0.61047907499716    2.22756527241329
C         3.24302590068701    0.32881854680704    4.75619128651671
C         2.85781391969810    1.21534497177291    3.79424691321826
O         2.75232825882154    2.44839962683527    4.34853015275707
N         3.08367973103205    2.23383202922440    5.69797661397232
N         3.43641244761757    0.97032815813750    5.94115977309797
C         2.57024346199853    0.95161919102465    2.36365920153015
N         1.16463272641958    1.28761398892895    2.06586939689506
H         4.36376710012377   -2.00533867152726   -0.40378081560967
H         4.87873411031045   -0.33230339247154   -0.19871390154938
H         3.85043067605383   -0.80908450558169   -1.61154939513237
H         2.07707441141656   -1.34473222414845    0.00032887136389
H         2.55919234102177    0.33799735222621   -0.09399090357175
H         2.48472589804144   -2.52387943491143    2.00355418972864
H         1.05537773885403   -1.56743335747643    2.30868554624299
H         1.08270086484996   -3.47572163709773    4.21845381559322
H         2.39624374111193   -3.31195071721388    5.48946617423931
H         2.68492197634172   -3.90423908336719    3.87540382523608
H         3.78311007511527   -1.63609129234310    5.48312070767531
H         4.69385338849122   -2.37180967911006    3.32150232630916
H         5.50865236988567   -0.83249836089130    3.95371798891485
H         3.18473675605886    1.57561584019875    1.70877587863189
H         0.50368305842995    0.60553068313390    2.45519974942465
H         1.09875978568587    1.29288727063545    1.05141300699054
