32
 energy: -49.314576447859 gnorm: 0.144136344480 xtb: 6.4.1 (79825abcba525fcdf90b791dcacef51065a7a4e7)
C         3.79690194734882   -1.36700881003534   -0.27477287794776
C         3.08277652428947   -0.16692366369178    0.33526205511953
C         3.08747462142500   -0.33824931049033    1.87856277169158
C         2.30694580642106   -1.61445350779964    2.31635524661289
N         2.14876516504820   -1.71676870666248    3.78491310702881
C         1.89708206508131   -3.08846660208214    4.20329318202533
C         3.38561472200177   -1.14304624023824    4.39229759835224
C         4.64726200904115   -1.28183959658340    3.49564294539793
O         4.46422813231229   -0.39292572930333    2.35673625602056
C         3.22162570676723    0.32728671534998    4.60025164148765
C         2.82134266488074    1.32146475792416    3.75702101615459
O         3.02040014916958    2.52477190109131    4.34964987201936
N         3.64740769310920    2.23223237744304    5.57362739219793
N         3.66522086662872    0.90962218047046    5.74794150051156
C         2.31306363804306    0.96851159525282    2.40946552757900
N         0.85714203524081    0.78257902300329    2.56123573983702
H         3.05315884462014   -2.15112333610726   -0.45502662305584
H         4.59731492669532   -1.62138798678877    0.42409820778135
H         4.27587080161879   -1.12658212818255   -1.22848770791232
H         2.07703780460184   -0.19032121307188   -0.09892804327773
H         3.47154529566215    0.84899113309008    0.19247892746154
H         2.81296886229271   -2.54879023925416    2.03881574958825
H         1.29586026127116   -1.67880225697085    1.89851654927579
H         1.70942758446559   -3.02182762444185    5.28159263197831
H         2.68820767217244   -3.82858065895924    4.04782628230541
H         0.95844978776881   -3.46228307004040    3.78152747012591
H         3.51467971080185   -1.63167745346198    5.36535180498140
H         4.86712664096923   -2.23450952066520    3.00092410931862
H         5.57914823149003   -0.90986228252879    3.93636995661102
H         2.45880064246531    1.75173653512857    1.66035578034952
H         0.66040022366308    0.01731563747931    3.21647221336411
H         0.38618526604310    0.60808394149883    1.67735791694315
