32
 energy: -49.314944553160 gnorm: 0.141506629931 xtb: 6.4.1 (79825abcba525fcdf90b791dcacef51065a7a4e7)
C         3.88553795640896   -1.27159062422347   -0.45628312809047
C         3.03685998406269   -0.24617755248449    0.28573831000472
C         3.05184157598774   -0.43290926414339    1.82718517578048
C         2.48789936748067   -1.80154196468011    2.31544568966655
N         2.35364336751990   -1.64995978043750    3.78212556918484
C         1.56566594519620   -2.68696263326149    4.43301576424201
C         3.63713811834161   -1.21064023407221    4.40462840471104
C         4.81341087669751   -1.16841565841578    3.38993311975014
O         4.46171865050852   -0.40679014914470    2.19954794563906
C         3.37093896068011    0.23479784247586    4.67270125677253
C         2.81937213492930    1.12968473129327    3.80402073204924
O         2.90386256654304    2.34341575391350    4.40276882992149
N         3.38874809135272    2.17483164207574    5.71170130436040
N         3.63470500961215    0.87054684918951    5.84715173664575
C         2.24855279861802    0.80150000952616    2.47537881973704
N         0.77545805740747    0.82677583170620    2.55702320160771
H         3.51662328052013   -2.29301248016422   -0.31109305882357
H         4.93742194676655   -1.30015226005027   -0.16214915178968
H         3.83631493641524   -1.02887492512544   -1.52186011315874
H         2.05504825927203   -0.35039413172212   -0.18940744782040
H         3.36104789620061    0.79252787806822    0.14572304775059
H         3.23420388292962   -2.55803859806557    2.03829042442627
H         1.51958066390275   -2.01104748167105    1.84694783418981
H         1.59959505826232   -2.45163659217852    5.50346199315005
H         1.73920840549322   -3.73812552841539    4.18250013477627
H         0.55394264608101   -2.54909467814072    4.03796638291135
H         3.90353406284436   -1.76401206343856    5.31295958582893
H         5.13438930193873   -2.13047820431968    2.97511306666436
H         5.68722009232052   -0.71585203190211    3.87228462060860
H         2.56060087219419    1.65130987087191    1.86194977541367
H         0.44493844068310   -0.04506792390356    2.98634297475402
H         0.30755326713665    0.85161913455787    1.65483878213753
