32
 energy: -49.316196440763 gnorm: 0.146891244878 xtb: 6.4.1 (79825abcba525fcdf90b791dcacef51065a7a4e7)
C         4.09691698066511   -0.36235129125441   -0.52779747257126
C         2.89326537572348   -0.69197911867423    0.34678265075217
C         3.03111883339067   -0.59613983494362    1.89046749161850
C         2.11468391275070   -1.70156928248457    2.49689753519361
N         2.08563798519155   -1.67383939290167    3.97694452135019
C         1.60934111588803   -2.95138214628974    4.48779399934964
C         3.40707709654307   -1.24640090848892    4.52372165155099
C         4.54327275963791   -1.44868242958757    3.48297737842283
O         4.44408254080565   -0.70403205027368    2.23540581038840
C         3.37761419187640    0.23587527001013    4.70812760266152
C         2.87799221159796    1.09044734561388    3.77018366687005
O         2.99963376726162    2.35563252000894    4.24272017199304
N         3.54771252037051    2.24958970814030    5.53314777811956
N         3.79138197116342    0.96183469503874    5.78277284709131
C         2.51610903404373    0.85700834607092    2.35124881813217
N         1.04848621478610    0.99917765408321    2.40767562788023
H         3.78141414399546   -0.09465596811905   -1.54233085103743
H         4.80771284309964   -1.17405121950683   -0.70014294050140
H         4.71586214739472    0.44354309602770   -0.12254539889084
H         2.69088078568939   -1.74061880386270    0.10188645920143
H         2.10577252296478   -0.02275185649305   -0.02145765685359
H         2.48564258877895   -2.66236806215263    2.11567844164027
H         1.12246612575125   -1.63542941872741    2.03629651964259
H         0.69511587999584   -3.24856674531618    3.96029215916913
H         1.36250577499079   -2.78761692396000    5.54139343431839
H         2.41602451917311   -3.68007118362625    4.35767946100813
H         3.62831370604847   -1.68274312809387    5.50500272725535
H         4.60973991195477   -2.47655678330179    3.10918117502332
H         5.52202056231997   -1.18273832875517    3.89812292785501
H         2.98045456043659    1.65158264597407    1.76058739949528
H         0.68020630551539    0.14051735259044    2.83281398606371
H         0.70238588662049    1.03993124407994    1.45266645077719
