32
 energy: -49.313990977988 gnorm: 0.157368566711 xtb: 6.4.1 (79825abcba525fcdf90b791dcacef51065a7a4e7)
C         4.09724423585853    0.17602595005670   -0.41154603915357
C         3.09513635934540   -0.70563392614660    0.32382987495157
C         3.06904151786103   -0.73104433228738    1.87619097356589
C         2.26570492486261   -1.92032923053657    2.48433268300382
N         2.05285196751615   -1.74999462912262    3.93960977587745
C         1.44871690720726   -2.85587995601545    4.66897925645166
C         3.29067871561188   -1.21480700970545    4.57932014064070
C         4.51883266736253   -1.41806880576304    3.64908923254570
O         4.43113426664966   -0.68253136710090    2.39526653247540
C         3.15657554787402    0.27144799827611    4.65058484089656
C         3.00607063240614    1.07123933374039    3.55635614492466
O         3.26575782693146    2.34172747492940    3.95284493226828
N         3.71919830505541    2.23290060158689    5.27926388756963
N         3.68661610610961    0.96551759313323    5.69481070596372
C         2.43176916025708    0.70089894241365    2.24035649847811
N         0.95766722988547    0.69057457737564    2.30539268523391
H         5.14171254106986   -0.12834286173980   -0.28144460465635
H         4.03462152347011    1.21901452565299   -0.09210321764420
H         3.91568925145147    0.27757158476020   -1.48556391344756
H         3.19990671740940   -1.75798203470080    0.03718465844437
H         2.10886163216136   -0.30271468300956    0.06204887165119
H         2.85601686394380   -2.82737499231214    2.29759109610351
H         1.29247867644633   -2.10919755280010    2.01723169963318
H         0.44774619388061   -3.08882123782793    4.28664348112804
H         1.49123516471000   -2.66528587643077    5.74586578322786
H         1.92225171364479   -3.83098222614353    4.51536948298296
H         3.48907206795690   -1.65183009874422    5.56517185673357
H         4.73940526326145   -2.47578274728898    3.46672665278669
H         5.33487597064688   -0.95611410522373    4.21626692545678
H         2.63448642556338    1.47055775637670    1.49043850580808
H         0.64397149569540   -0.01870118027285    2.97784573676485
H         0.50381210735937    0.52827624850199    1.41031526375893
