32
 energy: -49.321147647117 gnorm: 0.139954337388 xtb: 6.4.1 (79825abcba525fcdf90b791dcacef51065a7a4e7)
C         3.59212863612997   -1.28536737462761   -0.54180469708881
C         2.90395395800245   -0.18373751204914    0.25515787961767
C         3.04006363070964   -0.34957265094860    1.79305400852357
C         2.30510225720166   -1.60499012116785    2.35282485093378
N         2.33560288100401   -1.69497769497972    3.83036457966918
C         1.69571556109003   -2.88438916230814    4.37422665969244
C         3.63728253157792   -1.23978007359033    4.40158733413627
C         4.71391389083098   -1.39596968395929    3.29186810697041
O         4.44291305990653   -0.54979138965108    2.13804032562762
C         3.49145450382355    0.21514502915168    4.70808924844659
C         2.95434211611942    1.14691732238748    3.86965912826083
O         2.93681376552469    2.36394564005604    4.46741808586256
N         3.46450430153127    2.12588795949566    5.74871042040450
N         3.84814638069663    0.85264629936875    5.85676079019017
C         2.41985512191476    0.95625822070650    2.49969486901605
N         0.95024204214973    0.99917766933563    2.62502703888421
H         3.49126333986895   -1.05995750896538   -1.60927712695444
H         3.23762776710137   -2.30582633151713   -0.37814912952653
H         4.66350993937865   -1.23386916488608   -0.32668108868163
H         1.86668453334939    0.01984274663975   -0.03329675182683
H         3.48444121174410    0.72602947533279    0.05775061256421
H         2.82345782736971   -2.43648098735191    1.85683787783528
H         1.23723039754174   -1.45894375138543    2.15447144371388
H         0.79331729964061   -3.00881075100913    3.76383227361122
H         1.27640831183627   -2.58618757917497    5.34018512128368
H         2.16708487701847   -3.86771073308160    4.47192656430949
H         3.91256889711083   -1.80494984211467    5.29994876987633
H         4.84471932584782   -2.42455244452389    2.93750302480583
H         5.70217625561698   -1.09497076887524    3.65759547151836
H         2.71417946358148    1.82202591437556    1.89997369424006
H         0.59898872268601    0.27408093449847    3.26105066763869
H         0.45009853611907    0.99744773087830    1.73996077104445
