32
 energy: -49.315871430185 gnorm: 0.150330247354 xtb: 6.4.1 (79825abcba525fcdf90b791dcacef51065a7a4e7)
C         3.94369695024397   -0.24298561315930   -0.44805112869334
C         2.77047897124038   -0.83557730085346    0.32312767819010
C         3.00917368962967   -0.65672122119208    1.84700003327942
C         2.12578305111420   -1.70269018020745    2.59208695830725
N         2.14055139274525   -1.70508877274310    4.07260302930041
C         1.84426331843355   -3.06861298298131    4.48848341532677
C         3.46089935485674   -1.20205381495818    4.55375510155025
C         4.55055650197105   -1.59140657739821    3.51642258361732
O         4.39091333148041   -0.90781193323230    2.24049542439817
C         3.22315186342354    0.26963339605280    4.65188335251596
C         3.06598898906978    1.19417073934466    3.66184047677558
O         3.04101536120409    2.42080583178067    4.23935548599101
N         3.33778113236568    2.25298410523788    5.60339534787117
N         3.47740127313925    0.94199751550562    5.80789675877795
C         2.68307438406542    0.86158368232943    2.26843044113162
N         1.26493971363440    1.25289631680127    2.15405695914876
H         3.85680540308346   -0.36576101337599   -1.53334227034723
H         4.88417110595318   -0.66899662964790   -0.09054102995115
H         4.08780057774747    0.83233265339821   -0.30764850355228
H         2.60955308167566   -1.86423235466942   -0.01826723600293
H         1.94266099230837   -0.14512608886466    0.11915324864414
H         2.45460383236124   -2.68222854022530    2.21999271391598
H         1.10745603795881   -1.53815080470989    2.22200479864515
H         0.80018100761750   -3.22300198260471    4.19109338988522
H         2.03363174570556   -3.24769178943683    5.55144573005039
H         2.44032595884091   -3.75716119335489    3.88081054972041
H         3.63148606082133   -1.65818992283657    5.53614644045608
H         4.51586731122576   -2.67154531502299    3.33541392593204
H         5.55712120980469   -1.33297543914802    3.86435962443656
H         3.29483722082591    1.46542812245174    1.59243923372823
H         0.61676453857498    0.94199530282134    2.88677772472514
H         0.77514278289021    1.11456408990946    1.27402742960193
