32
 energy: -49.315821265263 gnorm: 0.142750820934 xtb: 6.4.1 (79825abcba525fcdf90b791dcacef51065a7a4e7)
C         3.52239761887609   -1.37805915591286   -0.54155773700685
C         2.92849449830502   -0.25197550757397    0.29602019107000
C         3.03704629917318   -0.35302948134521    1.84170975747933
C         2.27505208116674   -1.60398680497228    2.37467805645018
N         2.39025011604961   -1.68373418937540    3.84862563318646
C         1.70775319569620   -2.77741069026598    4.52539075801623
C         3.72745567514708   -1.18642230751119    4.28729680112948
C         4.79093506747526   -1.38869671215395    3.17235121269270
O         4.46932877148899   -0.46612323831011    2.09244136559409
C         3.46206788368234    0.22914640089988    4.68447537177947
C         2.91096121436951    1.16944038878586    3.86485166280268
O         2.87545328018486    2.30850621393255    4.59973203422152
N         3.29649552252340    2.02458935758640    5.91082068458481
N         3.63194891985789    0.73355660836692    5.93738958787843
C         2.52858603903599    1.05281504758414    2.43691012358552
N         1.05524164966342    1.13371497428709    2.43197606935787
H         3.40896529682339   -1.09652089430290   -1.59433982222286
H         3.08274075710224   -2.37234550466580   -0.43253024975941
H         4.57644694332317   -1.41396056861273   -0.25090461197535
H         1.87246266975432   -0.13882777462550    0.02662601301443
H         3.47502850690667    0.64246356664642   -0.02784763582510
H         2.73836008320124   -2.46966134098192    1.88271675408743
H         1.19359836756167   -1.57049811306315    2.20043601583337
H         0.62372790148996   -2.69691224243797    4.66959136313437
H         2.11360359324795   -2.84361992779375    5.53964925150672
H         1.82573915711645   -3.66016097995336    3.88861225991415
H         4.05295914214472   -1.72351279698130    5.18609267141177
H         4.69573400589527   -2.39201381743763    2.74228295071129
H         5.84569058354689   -1.26726917598104    3.44394926009575
H         2.80974035245172    1.93972879911339    1.86229526098840
H         0.73972464126561    0.39623507570353    3.07247793939384
H         0.72416317493378    0.96009306771149    1.48660244106305
