32
 energy: -49.313110661395 gnorm: 0.148223349347 xtb: 6.4.1 (79825abcba525fcdf90b791dcacef51065a7a4e7)
C         3.81195205791148   -1.41194531671582   -0.48284426294923
C         3.13785412142350   -0.24857354417174    0.23442847015513
C         3.03869425322314   -0.42995234558225    1.77339587478676
C         2.32210031081107   -1.68231572797282    2.36302601434929
N         2.31111279225663   -1.63650843978770    3.84286812153039
C         2.05652280869784   -2.99747317999176    4.29331268603260
C         3.55509485550028   -1.10677831775258    4.47513771487350
C         4.70262441910656   -1.21173679598457    3.43246487414714
O         4.39848337928014   -0.35437916421936    2.29526927877190
C         3.28196830905964    0.33268703084311    4.76729805751909
C         2.79166864523441    1.16798703475511    3.80733216912587
O         2.72424262331457    2.42352794263219    4.31512315970280
N         3.17298291479809    2.31345301277386    5.64303673494974
N         3.47301298530522    1.04189073459232    5.91342862882005
C         2.36061593445157    0.87908184743631    2.41824735032284
N         0.89269689675122    0.78945991515638    2.53864018328896
H         3.14529091305748   -2.25520005912598   -0.27079436102896
H         4.81046567199096   -1.62186103304745   -0.09208033469410
H         3.94715670747608   -1.27444991080606   -1.55969283249666
H         2.14985849877180    0.00747603722661   -0.16417172168491
H         3.83232809932086    0.59019940741501    0.10109850776897
H         2.95820494223736   -2.51034811660933    2.02272336052060
H         1.31497974311080   -1.76070996676617    1.93807140419853
H         2.07031564173828   -3.76168655053361    3.50707331969688
H         1.07079302251865   -3.06543129940760    4.76398984256087
H         2.78824259245509   -3.23842272751448    5.07124911972881
H         3.92782650424600   -1.67698908300950    5.33431378118873
H         4.85700839649436   -2.26862712362715    3.18789261392209
H         5.64644040571056   -0.84590861281063    3.85246544065741
H         2.64005095871841    1.75312722911747    1.82343079675503
H         0.43077080672626    0.07109471129642    3.10806615734690
H         0.40698867475794    0.85594652908371    1.64804719625504
