32
 energy: -49.313834344592 gnorm: 0.148335944928 xtb: 6.4.1 (79825abcba525fcdf90b791dcacef51065a7a4e7)
C         3.79624453276107   -1.57448578507883   -0.21895632851477
C         3.09981504474056   -0.32494563925575    0.30636021811610
C         3.05766866753821   -0.24533062562004    1.85653335545840
C         2.32252139549938   -1.54564843718794    2.30186100377264
N         2.26458000941714   -1.65337235183298    3.77739143700825
C         1.92988802480674   -3.03714569796898    4.08250451860289
C         3.50117654136962   -1.16481375406287    4.45563161184336
C         4.69205323704805   -1.16065138022101    3.45723169208479
O         4.45114266720383   -0.34448872544981    2.27544562289418
C         3.23404773811842    0.27295833165842    4.76136009254937
C         2.80809343448892    1.18085938973708    3.83727516038640
O         2.94085705673786    2.44000960692682    4.32275995117199
N         3.46103286748213    2.28735698316886    5.62004677607808
N         3.63721007402724    0.98490130112893    5.84933095404345
C         2.23794898901576    0.99011543578834    2.48177475995230
N         0.77086714494364    0.90084651608095    2.61221527394104
H         3.23813746827676   -2.50070189181034   -0.39536785673519
H         4.65881296379371   -1.85459307802646    0.39039258578164
H         4.21146245425670   -1.27577975836260   -1.18599144435563
H         2.13040754269965   -0.15223651885984   -0.17426385899089
H         3.75319551940956    0.48640906745714   -0.03774520805907
H         2.83105236085659   -2.43568776021527    1.90778119719094
H         1.31487121591016   -1.43349351532448    1.88582457225879
H         2.14736115044664   -3.24451411527285    5.13706055771647
H         2.53632958645514   -3.64366278609686    3.40266324390795
H         0.88450122179076   -3.25500446260075    3.84092717828607
H         3.52011746602222   -1.77590977059567    5.36582698328607
H         4.82180916427443   -2.17264843336008    3.05761621180078
H         5.65786727202115   -0.86984656173354    3.88578175296105
H         2.44173298665799    1.81833643651435    1.79740056268445
H         0.52431077604745    0.18392687759624    3.30424591686263
H         0.39355936614692    0.67802008433142    1.69489524384754
