32
 energy: -49.311473979567 gnorm: 0.147839723818 xtb: 6.4.1 (79825abcba525fcdf90b791dcacef51065a7a4e7)
C         3.96646691186834   -1.32633406107621   -0.49131760648859
C         3.03489961237485   -0.38946168276419    0.26813915961250
C         2.97084639897869   -0.39670909858415    1.81958888833521
C         2.20715973449970   -1.62467552306811    2.40136696263096
N         2.23148594559861   -1.78748616393437    3.87277873403773
C         1.91082004836406   -3.13753075629777    4.31379386739470
C         3.44402193474173   -1.16044677009717    4.47647424126840
C         4.59997792166508   -1.18106296668307    3.43803899470434
O         4.35828122363277   -0.35014535062785    2.26674214074762
C         3.19108571407587    0.28552707125442    4.75432164846525
C         2.85060350191637    1.20118652427325    3.80285226414791
O         2.95003196769137    2.43805432000571    4.34970961420649
N         3.54150301678699    2.28521857893301    5.61605950065562
N         3.61060559327543    0.97377690777201    5.85131685728294
C         2.37274324348899    0.97202571773757    2.41794642917383
N         0.89885677658485    0.99180991125812    2.48562273384141
H         3.56591814438918   -2.34612385595186   -0.48293566617363
H         4.99447696827478   -1.30623239608535   -0.12174794203417
H         4.22586733292442   -0.95085136849467   -1.48555716113675
H         2.00243651042922   -0.53170326090246   -0.07004145253382
H         3.28335616648229    0.64136050489182   -0.01343853785963
H         2.69755888245669   -2.50242660097016    1.95962682832306
H         1.17508708024366   -1.68465322115695    2.03770143552821
H         1.86683472320924   -3.08141375284461    5.40800629230761
H         2.74011824616002   -3.78162777288793    4.00521319392215
H         0.91704840995896   -3.48563274174486    4.01396299655919
H         3.88316032534152   -1.63327690571175    5.36295145311820
H         4.63614815418103   -2.20699992251546    3.05487813031580
H         5.59498590744169   -0.97473310192931    3.84841253531408
H         2.75268637272247    1.82526681513713    1.84920322155187
H         0.58115958665681    0.41572895202244    3.27357542627180
H         0.35535466447420    0.82949818038419    1.64197045542258
