32
 energy: -49.314338264078 gnorm: 0.147005474739 xtb: 6.4.1 (79825abcba525fcdf90b791dcacef51065a7a4e7)
C         3.50630064103897   -1.57019243253550   -0.41225067839901
C         3.17222654935646   -0.27860730083212    0.32431189396901
C         3.01792112701178   -0.28788324198511    1.86938645902814
C         2.25601703837499   -1.55041885056083    2.37445142529107
N         2.27797814680739   -1.75164479930822    3.84114073306748
C         2.22483013593734   -3.18534826948215    4.08935645112024
C         3.46115291644008   -1.16232601970079    4.53444518776373
C         4.67762218312668   -1.14129570098472    3.56761154192447
O         4.37895002473953   -0.33648863681175    2.39123650183150
C         3.13589625909476    0.27212659702959    4.79630411127410
C         2.81924603799284    1.17745450916994    3.82688759008797
O         3.08474094304395    2.41741218866674    4.30730235966992
N         3.43984372218966    2.22358228451697    5.65384266378997
N         3.53777968442203    0.92066339825002    5.92367849636314
C         2.30457918958283    1.03526366465803    2.44351161255205
N         0.83074549633282    1.08632042560558    2.39330941613363
H         2.73257053904350   -2.28412835656586   -0.71576018831212
H         4.23514748110563   -2.15149645243829    0.15753736276603
H         3.97368748062837   -1.42226122527994   -1.39023535332553
H         2.22073118894778    0.08322376591035   -0.08104438335334
H         3.92285186467465    0.45495905073793    0.00485440437597
H         2.74070556897703   -2.44133985229348    1.95325143809172
H         1.20177553081526   -1.53328524606117    2.07561166982578
H         1.90212552667227   -3.23539698146538    5.13613318200197
H         3.17180439771767   -3.69617817500855    3.88907899613382
H         1.45294262391473   -3.66077687424245    3.47550554725984
H         3.60491999352636   -1.69941249259571    5.47949644145958
H         4.95658793562629   -2.15003360484060    3.24312252903658
H         5.57350710420396   -0.65879824027606    3.97455842273794
H         2.65369005349321    1.90766011925063    1.88414408823221
H         0.27728481728688    0.37216173521215    2.88047351322547
H         0.63549691555403    1.11564827777952    1.39605985444526
