32
 energy: -49.319985330426 gnorm: 0.141712167653 xtb: 6.4.1 (79825abcba525fcdf90b791dcacef51065a7a4e7)
C         3.21677328950418   -1.49412844168364   -0.44548090347369
C         2.99725743496536   -0.19843295344292    0.32608120090824
C         3.05183474723189   -0.35308509684828    1.87018471759586
C         2.37651243028908   -1.67328949292520    2.35037711252800
N         2.28165513821666   -1.68674450828830    3.82786577875466
C         1.85180533237472   -2.94879915872554    4.41300558152250
C         3.62474820028597   -1.25037418992571    4.31113816036111
C         4.76989405115400   -1.23628975293021    3.26068604239400
O         4.47467421928729   -0.29899967426703    2.18592547798107
C         3.45502753171907    0.18162909968458    4.70175019501545
C         2.88346993838468    1.13057267198909    3.90646258122479
O         2.81929129934142    2.29597399751110    4.59675366795616
N         3.36772976148531    2.01773335768257    5.86112552870261
N         3.71644228537757    0.73126329504101    5.91939047022000
C         2.49923595906772    1.03063725311704    2.47775461732966
N         1.06456402821957    1.31495290947459    2.28232210533779
H         3.12761507415643   -1.28891642751608   -1.51805707568287
H         2.45366186665518   -2.20247474346391   -0.11427557629935
H         4.15316224063440   -2.00222141998928   -0.19687401432157
H         1.97599115591715    0.08929484109631    0.05257295269229
H         3.77333119148574    0.55161614376494    0.12923880686142
H         3.06137693917391   -2.45362782999470    1.99245908108106
H         1.35258028406868   -1.77557134996990    1.97338202303286
H         0.77989308763675   -3.05979305654620    4.21035032217308
H         2.06664356290487   -3.00767327833475    5.48454506948322
H         2.34556985411434   -3.81485384406447    3.96045558696151
H         3.95579450946352   -1.77785293310946    5.21359438874584
H         4.87229711935998   -2.22277327889614    2.79482014437948
H         5.71084299912112   -0.87385109509257    3.68995594797375
H         3.11430492691375    1.81546523826318    2.02877666871580
H         0.50009295724621    0.47836139409527    2.46982482024965
H         1.03411151193618    1.59870088250093    1.30659235095154
