32
 energy: -49.309209318411 gnorm: 0.153821749187 xtb: 6.4.1 (79825abcba525fcdf90b791dcacef51065a7a4e7)
C         3.59690314654607   -1.53409541438998   -0.33324617198040
C         3.04319037930278   -0.24171989253279    0.25453760421513
C         3.08134734618462   -0.31058530992436    1.80532876240058
C         2.35122959770613   -1.58122833435981    2.33634569519538
N         2.25907299904011   -1.68373967385286    3.81050656731177
C         2.01203928373673   -3.05732721238273    4.22544391530911
C         3.52016210938677   -1.15724349046911    4.41077836633257
C         4.73850381515445   -1.23656259090139    3.44934246158216
O         4.44794502931538   -0.37678974414189    2.31042018895239
C         3.30178535230396    0.27802877148510    4.76337075265599
C         2.85820289389245    1.15441231795254    3.81741048326619
O         2.78248089519076    2.36855552831931    4.41649592531986
N         3.25367046465820    2.21655101510508    5.73244190338906
N         3.57561910255965    0.93594413085326    5.92321802925533
C         2.46158260128726    1.05349466834674    2.39216059894577
N         0.98681191804476    1.08971278235539    2.35971852732466
H         2.81320087121481   -2.29086604742494   -0.21667106346313
H         4.55510978782300   -1.82775687343526    0.10194743283566
H         3.73599874900861   -1.47640499684523   -1.41681082445270
H         1.99275292400536   -0.05175237418742    0.00740940025935
H         3.61249054830889    0.62857510175308   -0.09488332134502
H         2.68470575195012   -2.57968809074164    2.02338501178870
H         1.29929376289055   -1.63874503297470    2.03444050972822
H         1.50467845764030   -3.07934046352331    5.19729013130992
H         2.95081159999090   -3.61773170816136    4.27516154308705
H         1.55136491511808   -3.61838507357174    3.40590207868598
H         3.79982189975162   -1.59552547128248    5.37615498978047
H         4.94644437557859   -2.27758642047343    3.17787004314943
H         5.62878801260451   -0.71355977312611    3.81660456369268
H         2.79479917304085    1.88066180158287    1.75922518843984
H         0.46633333675358    0.60238606734843    3.09815263916339
H         0.72287520542028    0.55897657595637    1.53379764166263
