32
 energy: -49.314258299650 gnorm: 0.153496376889 xtb: 6.4.1 (79825abcba525fcdf90b791dcacef51065a7a4e7)
C         3.05949309585693   -1.48404250403455   -0.46054141032268
C         2.89926332060686   -0.17245414241614    0.29865848549692
C         3.03360378696507   -0.40076389292609    1.82868428050405
C         2.23494269995503   -1.58904710756551    2.44488885923412
N         2.32698385817600   -1.81107003324642    3.90584263522140
C         2.13399255246885   -3.22464563893597    4.19653104066058
C         3.59176412569167   -1.21360573699883    4.42664730877533
C         4.74263537765809   -1.14663317880161    3.38452587879052
O         4.44553273594664   -0.36482131679240    2.19235226032448
C         3.28617495479000    0.20457020203470    4.78359064788308
C         3.01343117073553    1.16677943293567    3.85654232390949
O         3.03829435280372    2.35520445941388    4.50908251735842
N         3.30703717870437    2.09568867693516    5.86454098298107
N         3.47645818926424    0.77955622349976    6.00271600244135
C         2.62938022252017    1.03585247487215    2.43029119689150
N         1.18731517745387    1.27690812396553    2.23115958426884
H         3.22712454006310   -1.25142653883451   -1.51802442024893
H         2.11664302024830   -2.03410995663499   -0.41310694704393
H         3.94308140974656   -1.94992519672614   -0.01443252388426
H         2.01264564977702    0.38080491563187   -0.03057148483293
H         3.75638720039315    0.46967631077778    0.06071271861115
H         2.56218511190338   -2.47140364001470    1.87882174184870
H         1.17533442282006   -1.41233743457902    2.22802966729408
H         1.05343960152388   -3.30773972987630    4.02954195612499
H         2.38469140770697   -3.34050739384216    5.25556108846679
H         2.79144465469124   -3.85530345303026    3.58933825886178
H         3.92134432309569   -1.75414615424107    5.32188228898811
H         4.98284161423096   -2.18896336034146    3.14679509390830
H         5.60233539010977   -0.62521410554611    3.82048160358759
H         3.20144138820111    1.72047287114055    1.79792505944382
H         0.62115358362397    0.78494961571002    2.93195063625160
H         0.93597522802699    1.07917744048537    1.26616236979781
