32
 energy: -49.317376804518 gnorm: 0.152132574285 xtb: 6.4.1 (79825abcba525fcdf90b791dcacef51065a7a4e7)
C         3.85750307151490   -1.26302200535891   -0.36601873148377
C         3.05228572869475   -0.17355533922513    0.33184193116401
C         2.91792928068046   -0.40833254554863    1.86088726967968
C         2.26161759307941   -1.72732438444472    2.36990603919540
N         2.35538155667970   -1.81340620977297    3.84501617764434
C         2.04315072796957   -3.13391537977850    4.37294497476839
C         3.56297992286062   -1.16509600518416    4.43600709014666
C         4.70167090086839   -1.15862412358270    3.37848734545150
O         4.33208192273459   -0.36467892703506    2.21494417198296
C         3.27880445191831    0.27349460946917    4.72187000077957
C         2.85528315304902    1.16711312065118    3.78286519751597
O         2.80094583335052    2.41621970891179    4.30780435205958
N         3.34101715405601    2.26339383424624    5.59691490739573
N         3.67664640241739    0.98967284835328    5.80901937561156
C         2.27603918619074    0.95089004300722    2.43506948404765
N         0.80113127695806    0.94890575476928    2.47929091791897
H         3.27741507087794   -2.19252192717361   -0.36895306871877
H         4.85775700638432   -1.53082865129959   -0.01736107780310
H         3.97261034875636   -1.06683744952200   -1.43608885215378
H         2.05284390250322   -0.03834421960308   -0.09642532826365
H         3.56964002143886    0.78106271398426    0.17480703798836
H         2.76508047241700   -2.59200502463928    1.91721945572023
H         1.18794235488232   -1.78641681078528    2.15835586244141
H         2.17895765379316   -3.14212815963422    5.46100457123869
H         2.57619319841637   -3.97766509286088    3.92375610168473
H         0.97043670439415   -3.27493636184839    4.20545370821342
H         3.99225153780204   -1.60453270950019    5.34423281785890
H         4.84991633812664   -2.19369857527375    3.05090324666949
H         5.67930030562991   -0.86555570864356    3.77770032440587
H         2.62571088005997    1.73140806996657    1.75362446977408
H         0.61777070594807    0.25551885293756    3.21363670339080
H         0.40201921739456    0.77324044548912    1.56095542441614
