32
 energy: -49.315169952587 gnorm: 0.144986733762 xtb: 6.4.1 (79825abcba525fcdf90b791dcacef51065a7a4e7)
C         3.27235676949238   -1.57439515626108   -0.45759081912152
C         2.90790240605827   -0.30774444528825    0.30732163792432
C         3.01798372597933   -0.29825939021506    1.85617403475858
C         2.24372970459837   -1.49046262357647    2.49552273873929
N         2.40028486505622   -1.67968262510031    3.95560422924384
C         2.04965055548085   -3.04268050681641    4.32874460393685
C         3.74490996591335   -1.22240524016547    4.41468042174177
C         4.76628231513403   -1.36217822174910    3.25180937481215
O         4.43240485504799   -0.42465288718754    2.18863028083715
C         3.50773656031207    0.22790744584561    4.68367513821533
C         2.86257669814021    1.12876718087829    3.88876958133733
O         2.69074563321449    2.27319387002764    4.59555283602482
N         3.25062988604982    2.02687053978997    5.86152805039812
N         3.69855753816606    0.77137303741611    5.91709143679850
C         2.50761563421183    1.10781745818451    2.44918872975335
N         1.10324156908877    1.52805510780424    2.28052752936937
H         3.41883113656711   -1.30630106798317   -1.50980354540983
H         2.59926550186590   -2.43453418559184   -0.48758221158772
H         4.24242419063524   -1.95392192968540   -0.12335025975803
H         1.90966115287337   -0.01651122302265   -0.03804260240557
H         3.62197605067720    0.44694349533559   -0.04503611649949
H         2.59036155575654   -2.31326326332333    1.85605569880205
H         1.18920047792136   -1.31802716360161    2.25209299945339
H         0.95381519907667   -3.07120296329001    4.35550280906966
H         2.45064497500894   -3.39949304698320    5.28253010741475
H         2.38597511310368   -3.81335533400076    3.62760145133651
H         4.02652886370018   -1.86732608817149    5.25552559465368
H         4.72752175757537   -2.39680810704207    2.89305348566318
H         5.78108390795122   -1.22871789216122    3.64345387812677
H         3.12869885414945    1.95808922687923    2.15399464046398
H         0.41392883275484    0.79919576347004    2.49797229611917
H         0.97944966357719    1.68566385743751    1.28387118783399
