32
 energy: -49.309088163577 gnorm: 0.155372209203 xtb: 6.4.1 (79825abcba525fcdf90b791dcacef51065a7a4e7)
C         3.47691470113410   -1.28211149313963   -0.50005214080703
C         2.93383511126507   -0.10541659736122    0.30168084198581
C         3.08746633355257   -0.35177748321357    1.82708419990458
C         2.32257941497386   -1.63913757073828    2.25979267800225
N         2.29576115610798   -1.66423598565520    3.73992866397611
C         1.59126585189433   -2.71987470318384    4.45354945470176
C         3.61366554217595   -1.21913710626213    4.28111736690560
C         4.74776100954447   -1.36317181848477    3.22845954792388
O         4.51601328546437   -0.48941606776224    2.08669706097845
C         3.40281593239951    0.17154838945047    4.78465737679715
C         2.99685071472200    1.13582094787603    3.91000028339194
O         2.98189451091977    2.34797066768382    4.51765996620157
N         3.53214690470675    2.11872698199477    5.79104460416997
N         3.67721210931302    0.80313758006800    5.95891674894924
C         2.49541754107275    0.97215006646429    2.52414102351632
N         1.02471820980422    0.85562764094614    2.55204846506006
H         3.31837716250806   -1.19276903244932   -1.58049861210724
H         2.98513110953373   -2.16257788415380   -0.07967334741445
H         4.54281126884165   -1.49956282975923   -0.38443401170736
H         1.84658442334523   -0.04525566136297    0.17983887484870
H         3.44472824394992    0.83359321648938    0.05498299879650
H         2.82152857695714   -2.51919717169879    1.83245503961760
H         1.28277516736403   -1.65395237494636    1.91394363560675
H         0.78452335541266   -2.95496280026462    3.74907462147379
H         1.17208408743272   -2.39247240828233    5.41006023992254
H         2.24340136397183   -3.59763719625701    4.50747436308133
H         3.92799670536764   -1.89105739580197    5.08856504381278
H         4.98899430914907   -2.42529442167096    3.10858782078548
H         5.67298511185262   -0.87719271060935    3.55831408731198
H         2.80054084626766    1.84713673283762    1.94349992000867
H         0.75681707197839    0.01310071519710    3.07363027569290
H         0.69813589104736    0.81739229606904    1.59008647667677
