32
 energy: -49.309565875740 gnorm: 0.151748904455 xtb: 6.4.1 (79825abcba525fcdf90b791dcacef51065a7a4e7)
C         3.82267227606020   -1.49691831737886   -0.34223134435883
C         3.22733217150771   -0.25837987840490    0.31649073619906
C         3.06210920005888   -0.32217580389375    1.85914529357852
C         2.39345081940824   -1.67485135753590    2.24997702937870
N         2.34119829328293   -1.69095559585635    3.72955873548455
C         1.94232826441977   -2.96208345483676    4.31699218152473
C         3.53107376561146   -1.13832293843352    4.44136188516417
C         4.73211969597594   -1.07013136114517    3.45757043221185
O         4.46328672271576   -0.28331194236132    2.26198616548693
C         3.23545584982962    0.28962705289881    4.76630057321891
C         2.77347881614453    1.15607624841561    3.81999333644020
O         2.85922169111438    2.41485591358158    4.31688653274830
N         3.27388774070153    2.31408777525002    5.65656434938063
N         3.50498078891222    1.01976954489728    5.88314053888457
C         2.23589362641118    0.92198584888922    2.45799732361245
N         0.78196689910456    0.67621191098507    2.51281578246837
H         3.06757320910843   -2.20604125152205   -0.69923395665921
H         4.49835410802161   -2.08716045523352    0.28135407299509
H         4.36761461199138   -1.28078595660454   -1.26587238928315
H         2.26011282351776   -0.19574555205660   -0.19453032934142
H         3.73898616321244    0.68503989836559    0.08893774302959
H         2.90788109419033   -2.54719804934734    1.82518841380843
H         1.37373269365176   -1.73924490302143    1.85367874236688
H         1.06057632607652   -3.27436108928111    3.74482012732296
H         1.55857158670627   -2.82813392733533    5.33316482383648
H         2.83234618054020   -3.59650999753963    4.25353595814315
H         3.74392559247335   -1.68935647691494    5.36510906736403
H         4.99085237567340   -2.09242019575163    3.15982874924850
H         5.71174575841926   -0.66577208139561    3.73657885699073
H         2.26328982145792    1.87340089983713    1.91956920432431
H         0.58511524341649   -0.08799957221452    3.16924586889346
H         0.36387870422895    0.68143026106428    1.58617461926902
