32
 energy: -49.310662044283 gnorm: 0.151744581219 xtb: 6.4.1 (79825abcba525fcdf90b791dcacef51065a7a4e7)
C         3.39674335786895   -1.45192614965620   -0.47800539856357
C         3.29604046124287   -0.12984863665299    0.27318836110391
C         3.20525857486196   -0.32540313964166    1.81093629866668
C         2.46017368003025   -1.58391351385383    2.34999543926038
N         2.30430045242968   -1.62709775651368    3.82172583197325
C         1.73053873101351   -2.79877729697895    4.46818226230076
C         3.62123374191294   -1.18610391842181    4.36860914434921
C         4.79216439188219   -1.31130927345031    3.35458150093002
O         4.60362250422318   -0.42772396383525    2.21243148477902
C         3.44809422541592    0.26371501090359    4.68493816283107
C         2.85155358014552    1.13456810538294    3.82156772737167
O         2.58269412808632    2.28335749590676    4.48998261388824
N         3.08279358004412    2.11608543082568    5.79334725848796
N         3.56839549573829    0.87751459318017    5.89401257301662
C         2.48418406266741    0.99041479908532    2.39220117420124
N         1.01435113685704    0.87605436656162    2.33034904274660
H         2.57715654482271   -2.15829099881665   -0.30535848172325
H         4.35344144673277   -1.89603344629328   -0.19289494426814
H         3.26050527930176   -1.36787427380657   -1.56020805757001
H         2.41814213814000    0.42156731592383   -0.08151410157862
H         4.16144635734979    0.52352823667890    0.10650799151792
H         2.86508002317814   -2.52560425940405    1.95586092298412
H         1.43834111241986   -1.51661380477117    1.95967137960253
H         1.47081065191199   -2.44884108717113    5.47439825923731
H         2.41543705933386   -3.64937524257001    4.54040354215612
H         0.88288812988413   -3.21764435303831    3.91619089988606
H         3.87661129121984   -1.73866257339489    5.28059267269412
H         4.93380593331917   -2.34931602510019    3.03341671142289
H         5.63913982232977   -0.83517324697868    3.86148036773960
H         2.83338051721748    1.78000131026730    1.72103728610867
H         0.90614943469883    0.30702388692963    3.17779634865715
H         0.60843261854037    0.52193849275527    1.46818843195640
