32
 energy: -49.312485587225 gnorm: 0.147581624203 xtb: 6.4.1 (79825abcba525fcdf90b791dcacef51065a7a4e7)
C         3.62587019411827   -1.46272560954601   -0.50514175877924
C         3.16150042788632   -0.28309150592163    0.34052140224611
C         3.02327796215547   -0.39559433781371    1.88304831990042
C         2.38750652892435   -1.72486743253643    2.39139106756197
N         2.28840754337425   -1.73609642425911    3.86861989451166
C         2.24117752233815   -3.15050243183754    4.21091562708866
C         3.48101395549602   -1.11340877396709    4.51501007315769
C         4.67748828731510   -1.14099612936104    3.52370025076055
O         4.39028957651825   -0.28697789996203    2.37960782557372
C         3.20834950113033    0.33261161256697    4.77326464265358
C         2.80674238719892    1.22073404241502    3.81953268212845
O         2.79301917048319    2.46636859616629    4.35524450650010
N         3.25493694666722    2.32936372064482    5.67611559588042
N         3.53879062656280    1.04284364103989    5.88657609813548
C         2.30199539332558    0.92315857627307    2.45736213668368
N         0.83773018944822    0.88681048524010    2.27870312589905
H         2.83960403759067   -1.89289932766344   -1.13539321992756
H         3.90132911502555   -2.31743103472810    0.11726607534952
H         4.43294780028355   -1.12958659928661   -1.16425651678143
H         2.25469909872896    0.10839967355324   -0.13384644836169
H         3.92393071662932    0.49536736161384    0.21279944895840
H         2.94498906837012   -2.54890216124109    1.92636137390013
H         1.36740786454062   -1.83929807197500    2.00755742786655
H         1.55259438691974   -3.65281697293578    3.52104750174609
H         1.87924382445659   -3.18589546606668    5.24318004945285
H         3.22990259550968   -3.60700412309576    4.09828988543904
H         3.81557816823781   -1.69511124859210    5.38215581606793
H         4.82074944700962   -2.14330761355044    3.10475502432801
H         5.53719374379386   -0.60134492032768    3.93686179262282
H         2.58367074348888    1.75043714340017    1.80000746225300
H         0.32980450401401    0.73018461652844    3.15685462547286
H         0.52833570926825    0.29246863464347    1.51416298069457
