32
 energy: -49.313945127361 gnorm: 0.146540954914 xtb: 6.4.1 (79825abcba525fcdf90b791dcacef51065a7a4e7)
C         3.56853735530180   -1.64563981188489   -0.26092555070771
C         2.99055743677809   -0.34379164720207    0.28078716059337
C         2.97048798290182   -0.38542220404087    1.83288758974623
C         2.16438758796614   -1.59901269638589    2.38694975092197
N         2.29560270320316   -1.75443062987407    3.85350338068696
C         2.25343613272530   -3.16189101025843    4.22393373401055
C         3.55134317866412   -1.15613318471137    4.39482235794321
C         4.76272208933695   -1.13284352279393    3.42166986993287
O         4.37014431171990   -0.37351094601101    2.24265569337853
C         3.35016701901512    0.28213967718594    4.74541557267861
C         2.86122337590275    1.16707318958027    3.83027560818813
O         2.74640152089050    2.36278968720063    4.45944882132452
N         3.10683491537550    2.15247428496614    5.80209322781908
N         3.43886470845023    0.87116711940655    5.96945096573884
C         2.48976069174501    1.04154689061350    2.40020991242331
N         1.07010386264970    1.36425695883128    2.15990696998986
H         2.87090218733771   -2.49049507042784   -0.26328511627429
H         4.40701101574951   -1.92867703884483    0.37988826396773
H         3.81972423319314   -1.34883241265664   -1.28347073348809
H         2.03338511850172   -0.03249063219000   -0.15221593621684
H         3.81782820831406    0.34701759250088    0.07580736231992
H         2.41455382788515   -2.55697879732949    1.91177564920452
H         1.08556611144342   -1.54547215626180    2.20174299648749
H         2.35894763047848   -3.24035296020738    5.31255474577105
H         3.14241013841247   -3.64313435930236    3.80447150674280
H         1.32542059738410   -3.54096046092188    3.78376429026507
H         3.79247578590460   -1.66831462667973    5.33385268701322
H         4.98693659371272   -2.18359315580891    3.20644851219703
H         5.63065763707103   -0.59260905733723    3.81645330486086
H         3.12866122504704    1.76209400191814    1.88207482658311
H         0.40137836284740    0.85183918696830    2.74634064138533
H         0.87955486013980    1.36579288049202    1.16131920087001
