32
 energy: -49.314488052713 gnorm: 0.149902947109 xtb: 6.4.1 (79825abcba525fcdf90b791dcacef51065a7a4e7)
C         3.57069064129307   -1.60549368781876   -0.43007816398298
C         3.02203232073911   -0.38239564355600    0.29471650113579
C         3.07666325438121   -0.34042905436094    1.84597595710745
C         2.32308528419642   -1.54988607669747    2.47757596401802
N         2.49492242384962   -1.79213895996760    3.92807147320155
C         2.13609698910947   -3.16005975308460    4.27445042691704
C         3.70730058313173   -1.09022112075410    4.44316442209303
C         4.83971866456635   -1.09300413333990    3.37891418335378
O         4.49166190781491   -0.31454062770656    2.19839363463070
C         3.29333367891058    0.30984798997779    4.76010945753560
C         2.79044373129054    1.17076745409719    3.82974729887377
O         2.47306448956103    2.30343672416519    4.50436695707512
N         2.90367600641420    2.17880156812197    5.83698790947104
N         3.47144582108025    0.97539216949826    5.93416663873316
C         2.48223427710149    1.05472223773437    2.38393620089840
N         1.04024382435619    1.21440026964780    2.11471643898518
H         3.01116471198449   -2.51855925820056   -0.19829636810147
H         4.62474842742835   -1.77302615018595   -0.19622874408740
H         3.47849765009713   -1.46526301297533   -1.51110727463146
H         1.96317712679199   -0.44317876033679    0.01956209071490
H         3.50958221990909    0.58183750579198    0.10455714296107
H         2.67573117788370   -2.46406681765491    1.98160512082395
H         1.23661694904224   -1.57837322123358    2.33686722000036
H         2.64611409498658   -3.95254855944389    3.71388937189523
H         1.05002961512165   -3.29465521917183    4.26179269250736
H         2.37936139538233   -3.33309539914308    5.32779591129388
H         4.13539709971323   -1.63731756578033    5.29149900601920
H         5.11483405655615   -2.12090029914363    3.11736464863039
H         5.68630238958359   -0.56617051791968    3.83362474102253
H         3.09509873167132    1.87367107281929    1.99719860647128
H         0.37939096932457    0.60385487213243    2.60886018379695
H         0.88285885606965    1.09966198369278    1.11694195772771
