32
 energy: -49.309185280908 gnorm: 0.144768760472 xtb: 6.4.1 (79825abcba525fcdf90b791dcacef51065a7a4e7)
C         3.69449978763787   -1.63415887345086   -0.28157257301492
C         3.07552992098901   -0.37032351100009    0.30316545314550
C         3.06035824121516   -0.35570388757780    1.85581083856314
C         2.20342278293020   -1.55470892605987    2.36338656974886
N         2.21442245822066   -1.79308875595606    3.82462088923291
C         2.17391923702627   -3.19272726271191    4.22376110731349
C         3.46989744599186   -1.19279052231805    4.36433820296228
C         4.69968149414150   -1.25062912396476    3.41602764999873
O         4.46107830755738   -0.39784504098410    2.25991108235397
C         3.23451065663291    0.24469147801925    4.69638458997692
C         2.93529439914735    1.20426443135691    3.77478612483358
O         2.87697136563451    2.43308485022127    4.34520678099496
N         3.17786632927686    2.23228948030523    5.70387607175668
N         3.40135601520940    0.92659682827874    5.86268256525300
C         2.44141815051577    1.03122473686481    2.38735223578044
N         1.02246188603423    1.42167158278264    2.49425018892145
H         3.21231678633580   -2.59703207756864   -0.07944502658638
H         4.71610790544967   -1.56081418173023    0.09885863586989
H         3.67244589165480   -1.53616196437758   -1.37092942859373
H         2.04455191741744   -0.29883903505643   -0.06091307435321
H         3.64907382377682    0.48299885584444   -0.07958691036611
H         2.62067230302149   -2.43290821085090    1.85275805713823
H         1.17005472250483   -1.49783984324632    2.00291429168304
H         2.10677941560384   -3.30833729398145    5.31211363336178
H         2.96022946610372   -3.78256130635149    3.74248101907600
H         1.24222683238469   -3.64819252756101    3.87282482703656
H         3.79691277592656   -1.77814085677772    5.23190875765129
H         5.00413566497460   -2.26256789696127    3.12627821505593
H         5.52999755252550   -0.82672620614053    3.99213606726797
H         2.79199450992782    1.95896629099204    1.92665948054768
H         0.49798886896537    0.87754174821546    3.18888749933353
H         0.44985330657850    1.45337584618183    1.65484381523958
