32
 energy: -49.315584247760 gnorm: 0.147336159731 xtb: 6.4.1 (79825abcba525fcdf90b791dcacef51065a7a4e7)
C         3.06308426575040   -1.60960910408127   -0.47098076686275
C         3.00144392053909   -0.29827778882898    0.30292667855599
C         3.05791475403811   -0.33587061746050    1.85423240574664
C         2.18770051963114   -1.48034935642691    2.45629570561574
N         2.37955240509148   -1.75018947200099    3.89939336504944
C         2.16697498050073   -3.16216156343908    4.18415120743138
C         3.65443903695076   -1.14239709504970    4.38222118812635
C         4.77967052114840   -1.31258724089723    3.32396958916285
O         4.47485756354981   -0.56803729794220    2.11008650494183
C         3.41136330863835    0.29316404251365    4.71702662308505
C         3.10186094804208    1.28036257442230    3.82860008090092
O         2.86502956144316    2.39292359464934    4.56677337036909
N         3.05711823906231    2.07429818720914    5.92265632702446
N         3.40672483728393    0.78826549094615    5.98507090486118
C         2.68788945755412    1.12702459532180    2.41299266350160
N         1.24151043116385    1.41478117085085    2.36302576190022
H         2.98364180295148   -1.45191108082127   -1.55232300245076
H         2.35504912142741   -2.39284328147698   -0.18987411326310
H         4.03568682198625   -2.02280496013080   -0.18795853974495
H         2.02822301516972    0.16536194547646    0.10681924557753
H         3.73611434205233    0.48542011665177    0.08001858928489
H         2.23641358932044   -2.38922294342365    1.84176461297807
H         1.14797603397567   -1.13403993206443    2.44812900251699
H         1.14905916730590   -3.37412444032764    3.83586426367167
H         2.26197239703934   -3.45507187479569    5.23438810388151
H         2.85911237515774   -3.82146511998305    3.65037197954874
H         3.93397446514517   -1.62198890790265    5.32779210484073
H         4.89728654766261   -2.36330056535503    3.03615863490304
H         5.72863512507949   -1.02902857756010    3.79309645281360
H         3.09858221558128    1.87035777356283    1.72405635522759
H         0.76234945087617    0.69160313550303    2.91174108913868
H         0.93090690909522    1.54710293878482    1.40411741421712
