32
 energy: -49.309691096641 gnorm: 0.147586165086 xtb: 6.4.1 (79825abcba525fcdf90b791dcacef51065a7a4e7)
C         3.89530603014946   -1.40694857806298   -0.38345994856146
C         2.93144200100727   -0.44771046191252    0.30439938255300
C         2.98917783562423   -0.38429605571528    1.85481765868798
C         2.16341607895229   -1.59481656938715    2.38617651710221
N         2.29133588463438   -1.75980767624737    3.85197532944407
C         2.10177775265795   -3.12769563031664    4.31337715613871
C         3.53674102207086   -1.14701403296429    4.40090175017770
C         4.69783227273532   -1.29616167707763    3.37883074907784
O         4.40499446026530   -0.54756434950793    2.16448904964707
C         3.31700416189432    0.30985291180668    4.64843095289306
C         2.90470773056095    1.29530984084789    3.80076316383880
O         2.74163911997706    2.46151682091904    4.47318478966315
N         3.18176479069222    2.17269823789169    5.77691483314331
N         3.40046463512471    0.86145829624086    5.89014312819761
C         2.48832495964710    1.04443193565414    2.39986524942991
N         1.04855030250450    1.33762957626467    2.26423007688648
H         3.76864919936897   -2.46321621354910   -0.12128151319074
H         4.95534299959014   -1.15382988035127   -0.30572293993368
H         3.76381904981303   -1.28634869110013   -1.46279074584478
H         1.86229495256135   -0.67178948323237    0.21900591612307
H         3.18391311846535    0.55455861310605   -0.06346756248185
H         2.53237931179627   -2.49941238562411    1.88453403869621
H         1.08930010468373   -1.50544323973163    2.18790599810021
H         1.92648377157911   -3.22757909211364    5.39118974328478
H         3.00683728042263   -3.67986134786063    4.04171785719210
H         1.21306410031588   -3.60046372253533    3.88287280712495
H         3.83313170529512   -1.65691678128150    5.32524177174365
H         4.81486444742088   -2.37673860914350    3.23981947076423
H         5.68879428325564   -1.01145063480070    3.75025135752675
H         3.03345173369870    1.79246992071872    1.81752344448321
H         0.61654737893498    1.40669087860383    3.19281730177786
H         0.45920229101345    0.77344779335482    1.65771820630837
