32
 energy: -49.316469159218 gnorm: 0.142159111958 xtb: 6.4.1 (79825abcba525fcdf90b791dcacef51065a7a4e7)
C         3.17270602418411   -1.80467667103560   -0.27305580933502
C         2.81586781499866   -0.44932231525089    0.32527783183132
C         3.07503908165713   -0.32899141047617    1.85154856523787
C         2.13939651582906   -1.32903195765111    2.59591171493456
N         2.52033503495656   -1.76700651903691    3.95797478524151
C         2.60363588090230   -3.21274072403034    4.10915332740327
C         3.75725903980755   -1.05044458210058    4.38742582030179
C         4.89524132360203   -1.14436066621749    3.33329912516007
O         4.45431900001585   -0.78116610130426    1.99372647015348
C         3.33979198925824    0.33251363192002    4.76842987517046
C         2.81677457101548    1.22168325706228    3.87653048711186
O         2.27481627942047    2.27127123712862    4.54243379038671
N         2.47884111304339    1.97106904796950    5.90077517465013
N         3.09789876211855    0.79580692600093    6.02538263380302
C         2.85641140922623    1.16964676883866    2.39512898634170
N         1.54395893996180    1.71968445484676    2.00494968693537
H         2.39810943987076   -2.56670222658667   -0.13235049300367
H         4.03017043033276   -2.15500377221183    0.30644070424181
H         3.39469307517299   -1.79314436085298   -1.34421260483444
H         1.77534057993636   -0.18816195766231    0.10239402095624
H         3.41645903610670    0.37739220853608   -0.07402697751587
H         2.06566510278204   -2.16410234916927    1.88647972661446
H         1.13082547248241   -0.90739512291536    2.67356958030978
H         2.69383837006272   -3.33530143535431    5.19507553589505
H         3.47193999539529   -3.70130531688860    3.65619516061833
H         1.61426699079782   -3.60610583627904    3.85406764382940
H         4.12170838628423   -1.56974035665190    5.28171955751725
H         5.21453063922655   -2.18592418523152    3.21554119350093
H         5.79721214684403   -0.57935932384909    3.59452977840168
H         3.72304584098613    1.75974358008551    2.08436138254826
H         0.80843028883117    1.27632467226755    2.56717733851863
H         1.40564870733405    1.57313618859642    1.00851468927173
