32
 energy: -49.315476676954 gnorm: 0.141595591297 xtb: 6.4.1 (79825abcba525fcdf90b791dcacef51065a7a4e7)
C         3.38567203235293   -1.61645408719128   -0.28920442930398
C         2.98450711188900   -0.28299047620834    0.32987844087438
C         3.09764682918346   -0.35168715201041    1.87701509195470
C         2.39433855469990   -1.65981140904598    2.35004048559923
N         2.39762224730154   -1.74475841462283    3.82818964118412
C         2.15966790267534   -3.13270758297403    4.19821156652002
C         3.61875316798465   -1.12672931308588    4.42379817510198
C         4.80323514356753   -1.21099405438031    3.42134671336009
O         4.50747799077709   -0.40208609022798    2.24704976816483
C         3.25560250400770    0.29657505641420    4.69645646430636
C         2.91573203922615    1.28418101602917    3.81965722361017
O         2.71827080735334    2.44696357189320    4.48878106463361
N         2.95220855531747    2.14571395616222    5.84205879011326
N         3.31133295721958    0.86398299723283    5.93258979734561
C         2.50577556036023    1.04458213510710    2.41489484053881
N         1.07246935581367    1.35295929762787    2.24801265754293
H         2.59381514803459   -2.27911815832647    0.07729224132839
H         4.38772052160388   -1.89396249201983    0.04647161559466
H         3.39795945829598   -1.61778972183177   -1.38311272712143
H         1.95791825791341   -0.06125186110011    0.01758663856601
H         3.66446846723031    0.49784186922322   -0.03283970713930
H         2.90126714774729   -2.55287791900407    1.96077420201698
H         1.35249452563524   -1.61257428221725    2.01336023460390
H         1.89730431045506   -3.13096302005003    5.26289319202484
H         3.04325232763093   -3.77851584926073    4.20357338802641
H         1.37522803585656   -3.58529131708243    3.58300617092318
H         3.88256275489897   -1.63205366717808    5.36044352721336
H         4.90626997197151   -2.27254950042004    3.17004802745835
H         5.83765741896475   -0.93741559088132    3.65829549721872
H         3.16207013463554    1.69569878985393    1.83079678551972
H         0.55850500747267    0.52376273191152    2.56729925189234
H         0.88727921924287    1.48973402312936    1.25781767368596
