32
 energy: -49.316139187452 gnorm: 0.142713336004 xtb: 6.4.1 (79825abcba525fcdf90b791dcacef51065a7a4e7)
C         3.51431345471536   -1.52380072930429   -0.40290429216924
C         3.01858599504868   -0.29262535822585    0.34595055800408
C         3.02157938304333   -0.40248168291181    1.89484509261394
C         2.15508642508530   -1.58640582971782    2.42124627113506
N         2.36585675152646   -1.89097602463925    3.85476102755633
C         2.28477121473701   -3.31195656354334    4.16164996499210
C         3.48436187132030   -1.13400717276648    4.49022515530502
C         4.73520124124873   -1.16960609020141    3.56873688649953
O         4.41479588698574   -0.50284199424554    2.31432716230362
C         3.19358025322031    0.29503994568611    4.81470421162100
C         2.82039265603037    1.17037526859090    3.83788617626896
O         2.80961125973732    2.42046551761846    4.36318521445368
N         3.27103625612508    2.30987791827341    5.68670180345030
N         3.44435816279983    1.01231615005160    5.94417689797736
C         2.47381276016546    1.02236289937486    2.40372996997960
N         1.05469129905694    1.30715558868368    2.11684981421600
H         2.91794404874363   -2.44021544556105   -0.33213422049823
H         4.49977386672640   -1.69938287749012    0.03507879316818
H         3.61619043546023   -1.16203932675052   -1.43029803338064
H         1.98296649667804   -0.04362355239518    0.08891122910286
H         3.78061206998517    0.45546149582673    0.09436881247775
H         2.44917352761519   -2.46747520249047    1.83532633579383
H         1.08475062322719   -1.36967104603710    2.32942457662101
H         2.13854225101930   -3.35262525314287    5.24762777647641
H         3.18671013015187   -3.83955122104184    3.83612182463636
H         1.42113493197693   -3.74211886280654    3.64420587558180
H         3.78611211597468   -1.73522025506343    5.35610178609664
H         4.95303059348174   -2.21021084264158    3.30348362237887
H         5.61286919038996   -0.71152591856278    4.03871654551939
H         3.15961394306666    1.73392271794284    1.93553623666190
H         0.35855982503623    0.79534052774487    2.67103077250494
H         0.71326015325318    1.26042240626547    1.16043484406174
