32
 energy: -49.311231694462 gnorm: 0.146223696477 xtb: 6.4.1 (79825abcba525fcdf90b791dcacef51065a7a4e7)
C         2.98136454356174   -1.81208573190830   -0.23812271053606
C         2.67637880961352   -0.46016261571185    0.39560410698057
C         3.03773464756787   -0.43395063088915    1.90553341695597
C         2.01622227261234   -1.22745476348576    2.77527376341516
N         2.58464697707264   -1.85733529147730    3.98865563213540
C         2.84160609105702   -3.28944444947945    4.04321523580349
C         3.77955449855133   -1.09255770689534    4.45253220259027
C         4.89467294555754   -0.96214362736235    3.37805091414863
O         4.40849876014483   -0.92182466048169    2.00590415210873
C         3.26401498309306    0.26275376963753    4.81220718353766
C         2.93888334040409    1.14711863133079    3.82638641769321
O         2.30376838659175    2.17606722031106    4.44012474785589
N         2.27459916416213    1.88353095340465    5.81504674294022
N         2.82781123985758    0.68853461630493    6.02938433703506
C         2.99483955199494    1.11338236594079    2.34498165849937
N         1.89490467716460    1.95792121815078    1.84078902609924
H         2.24132155978501   -2.54438312333156    0.10328279029556
H         3.96538948014687   -2.18131738372014    0.06046296600092
H         3.02956482316945   -1.62987783933453   -1.31574284122729
H         1.58916990020008   -0.40344129242210    0.27175607525809
H         3.19621066297344    0.36328216888481   -0.10969241700521
H         1.57213073842477   -2.04591263924151    2.19305212081862
H         1.20417799887097   -0.52935520812256    3.00822230382814
H         3.11553162635428   -3.58742360906719    5.06231183528181
H         3.56891305519370   -3.58349240465852    3.28007771243712
H         1.91676110530265   -3.87143111352086    3.97532641196140
H         4.22282929027680   -1.43812174363278    5.39399153669798
H         5.61075236369331   -1.79053725401846    3.41881156519896
H         5.44876454099701   -0.04435757690812    3.60536263603815
H         4.01332043412884    1.42185817398466    2.09321714587719
H         0.94643835949330    1.70883993419831    2.14417059642836
H         1.83561049770960    1.97456011631605    0.82604957101201
