32
 energy: -49.310584433556 gnorm: 0.155055264869 xtb: 6.4.1 (79825abcba525fcdf90b791dcacef51065a7a4e7)
C         4.27405433389525    0.05443180066594   -0.19108971180759
C         3.07115523527009   -0.70060638477128    0.36142560580687
C         2.91624907289467   -0.66131805433057    1.90596829782062
C         2.03045927565939   -1.77487697881159    2.54232319660813
N         2.03043732079010   -1.72591138318604    4.02210495741688
C         1.76191812023038   -3.05338057162195    4.55658075832152
C         3.33764211716961   -1.21426838022979    4.52935959754290
C         4.42622126211706   -1.65466140249394    3.51149100593536
O         4.30122084553041   -0.79404338795116    2.34337746869843
C         3.36542067357532    0.27827883315443    4.46979924499112
C         2.83667876740855    1.18787713978069    3.60220643849026
O         3.12960264322775    2.41208926100426    4.10646946325195
N         3.77165393519340    2.23883456804665    5.34525586456545
N         3.85458035151177    0.92518845828884    5.56310341712872
C         2.35537035684877    0.80651427648782    2.25249022496894
N         0.89449387946953    0.96065484267117    2.39175050768144
H         4.29254562971203    0.02681572176965   -1.28625007662602
H         5.25002667589248   -0.34044020338734    0.10104823384798
H         4.23306764370601    1.09039814165950    0.15802625481945
H         3.10897614379212   -1.75842935229171    0.07830195387689
H         2.23202129958199   -0.30856086472622   -0.22659275142388
H         2.27088680366550   -2.77467628341589    2.15674755831644
H         1.00337343630047   -1.54947516594489    2.23359578026433
H         0.77125144803872   -3.23466883541459    4.12287720405025
H         1.62864074750973   -2.94893871565370    5.63785202140302
H         2.53016154196621   -3.76260843791379    4.23184471308022
H         3.62579575595713   -1.47279889788298    5.55521639464913
H         4.19065315294376   -2.66589003621231    3.16136033584401
H         5.49296786773475   -1.59231600472116    3.75476878936904
H         2.71403866152153    1.54306628725663    1.52813246192085
H         0.58100501528558    0.18761910082882    2.98992330975130
H         0.43664580625544    0.81602454229892    1.49567794612096
