32
 energy: -49.312058739535 gnorm: 0.148686176155 xtb: 6.4.1 (79825abcba525fcdf90b791dcacef51065a7a4e7)
C         3.51676827954930   -1.59950762557710   -0.47608535601647
C         3.09110705768019   -0.35797321871055    0.29833501535900
C         3.12332424324242   -0.31416506524845    1.85017086704708
C         2.26254315333781   -1.44984295685797    2.48173737050337
N         2.22703657922653   -1.77459266708122    3.92583868097293
C         2.29412808476976   -3.21450268818665    4.13101969207780
C         3.45454889368053   -1.15929201455710    4.51106414200898
C         4.63343416842213   -1.26529094211348    3.50408808961082
O         4.49007271770379   -0.38283471489236    2.35452460645638
C         3.27682609239255    0.30656569692500    4.73842300066842
C         2.92190634079789    1.19927572327810    3.77056188217068
O         2.78525781485995    2.40043763493796    4.38482419023734
N         3.07170009918505    2.20999750224021    5.74810045616049
N         3.36226148670059    0.92343114413011    5.94890268748918
C         2.54508636063997    1.10549234801631    2.33946416582385
N         1.07763646723632    1.25900563102140    2.32109833384751
H         2.76517821529454   -2.37431885917948   -0.28830695481968
H         4.48821652704679   -1.99211181361621   -0.16634232692157
H         3.63614203579433   -1.38217355386353   -1.54159177625521
H         2.14149984533005   -0.01258537317021   -0.12537741756152
H         3.75774314228587    0.47408824640495    0.03972121649543
H         2.56463029948005   -2.37962156876455    1.98140975778668
H         1.18855744383056   -1.35954913498132    2.28317847364348
H         2.68415801498784   -3.36727054335654    5.14439193185956
H         2.83788377224740   -3.76586090699937    3.35761658368549
H         1.31440245448843   -3.70316744858373    4.13126478832353
H         3.61486750043592   -1.55614308651507    5.52054910632768
H         4.78030517041161   -2.29366255340564    3.15545088060369
H         5.57629815460519   -0.87625265527409    3.90493228411326
H         2.92245828421375    1.95566211980094    1.76444435672340
H         0.62477549946829    0.58905321514781    2.95335692687900
H         0.69660098742288    0.98547541459578    1.41916596342434
