32
 energy: -49.309821508216 gnorm: 0.157590515099 xtb: 6.4.1 (79825abcba525fcdf90b791dcacef51065a7a4e7)
C         3.79017412432891   -1.13141043769912   -0.50745785658867
C         2.85218708231824   -0.34557851814660    0.40082106033486
C         3.01660678350515   -0.46258865680055    1.94043998450735
C         2.21168971149382   -1.69683839919352    2.44869258454616
N         2.36642440028535   -1.79722867551346    3.91775033186448
C         2.12925470183110   -3.18341594074531    4.29481370170685
C         3.58175654441988   -1.16931462240942    4.51487840657052
C         4.73581603440707   -1.19837896346871    3.47453760020088
O         4.44025021003315   -0.45588023138886    2.25711648231562
C         3.21886313149699    0.25382632990985    4.78872961865224
C         2.70489916946419    1.09992727784637    3.85085509590243
O         2.85511615961536    2.36739660749079    4.30882595129433
N         3.31733933869785    2.27463049636327    5.63343268057241
N         3.63534823347536    0.99720250387626    5.85033938330796
C         2.39071644083613    0.94340718336197    2.41015388151151
N         0.93589974506956    1.09878520605027    2.21863657136688
H         3.82457675519434   -2.15907805749831   -0.12904468865018
H         4.73829962294478   -0.59195000475247   -0.44556297718661
H         3.53238119612055   -1.18029840613445   -1.56950347676169
H         1.80662946673096   -0.54448584952264    0.14039064276256
H         2.97800656738800    0.66568009693164   -0.00554886870877
H         2.50190474794882   -2.59752741959562    1.89137117932846
H         1.12596064973506   -1.60871268618711    2.32848368866544
H         2.14327825573431   -3.10108832698523    5.38816184669423
H         2.83041020764239   -3.95254270961388    3.95622328524932
H         1.12689583778767   -3.43193760853846    3.93126273082575
H         3.93479695556348   -1.68966974963138    5.41312432413896
H         4.88509078259072   -2.26464028995420    3.27089329688866
H         5.66152532396971   -0.80969526108958    3.91386281244163
H         2.96152314469840    1.77280426183195    1.98339141666132
H         0.40577677954752    0.34014715326827    2.66260523155634
H         0.71277139186379    1.09829430650521    1.22681888848028
