32
 energy: -49.313940109759 gnorm: 0.147078436492 xtb: 6.4.1 (79825abcba525fcdf90b791dcacef51065a7a4e7)
C         3.41466557690076   -1.58549868765699   -0.44697312045885
C         3.05081150532698   -0.30416573045383    0.29337690118163
C         3.10866602037250   -0.33018371244063    1.84486894445848
C         2.25923540049801   -1.50756335239026    2.41216907533330
N         2.43975704840257   -1.70217682012694    3.86877102291660
C         2.14580403407214   -3.06933743497496    4.27423972270869
C         3.68681763869815   -1.11521232637783    4.44164343063355
C         4.78677405304710   -1.34268923851858    3.36769874706407
O         4.49951817458568   -0.42604268211886    2.27315735489583
C         3.32706456593270    0.30502359428848    4.73408820750931
C         2.86727613762603    1.21199267882411    3.82543202149402
O         2.60923206805062    2.32204762403680    4.56026004012915
N         3.08102979313594    2.12516846561071    5.87002502170937
N         3.53108541516138    0.87206105990961    5.95471398068415
C         2.52197043737609    1.06512493276047    2.39085084991781
N         1.06803864519129    1.22799916603639    2.19884264300731
H         3.46625133499730   -1.39902166502816   -1.52541923990492
H         2.70578204347003   -2.41426311241127   -0.38045877773833
H         4.42695387773615   -1.89236288270912   -0.16787656061687
H         2.06079667337291    0.04535250484043   -0.02012986473917
H         3.75272933823352    0.48004212947538   -0.01636563741623
H         2.36592918909216   -2.47397610430372    1.90154645823129
H         1.24199082324577   -1.18086898574115    2.16822608026287
H         1.97323274505709   -3.68721513705116    3.38495295467281
H         1.25338768621458   -3.00495780333699    4.90453078967772
H         2.91844192645305   -3.59484249782135    4.84479273052778
H         3.85418727811149   -1.55376931388009    5.43255609075387
H         4.69549254191361   -2.41297294857140    3.15130180044636
H         5.74350401168371   -0.93477762354517    3.71309020162925
H         2.94067291185648    1.89664320544442    1.81716835984705
H         0.61554488065574    0.64328075968289    2.91089882401047
H         0.76163986723484    1.01316738692645    1.25361467475053
