32
 energy: -49.317984320830 gnorm: 0.149704186554 xtb: 6.4.1 (79825abcba525fcdf90b791dcacef51065a7a4e7)
C         4.04142656258451   -0.37978436572912   -0.46127470024997
C         2.81305676975617   -0.83427216299825    0.31774428444963
C         2.95100347107042   -0.58283614272693    1.84381841595980
C         2.04606096970726   -1.64587843417738    2.53707505825450
N         2.12683633724997   -1.65265809846237    4.01544614612405
C         1.80109382270910   -3.01109859170220    4.42590032487485
C         3.47270911373865   -1.23978592222935    4.51146354472694
C         4.58759306485157   -1.53845020888261    3.47086734644864
O         4.33756365650251   -0.81263957236587    2.23334485623130
C         3.37318011428480    0.23613821916776    4.72064809938433
C         2.92573144575133    1.09673578583257    3.76209926156100
O         2.97010093211902    2.34056455255603    4.30033924179415
N         3.52867581259279    2.24489109511646    5.58707134019262
N         3.66453001479822    0.94331085940850    5.84674993614366
C         2.61656959027729    0.91637604191560    2.32310010267894
N         1.19752492081373    1.29436197597903    2.17904568058757
H         3.74953728863230   -0.36112038678043   -1.51717863091429
H         4.88138528974836   -1.07423475386393   -0.38382479000982
H         4.36284641035768    0.62374841450792   -0.16733700775747
H         2.72622807912461   -1.92158575703451    0.21387522789062
H         1.92700613755563   -0.31290005448603   -0.06526543681652
H         2.23865124015813   -2.62770127191932    2.08429969277305
H         1.00326765764894   -1.38632794609438    2.32204117110071
H         0.90650301847782   -3.40646731804533    3.93014279969827
H         1.71193259157000   -3.06032657517497    5.51560000113964
H         2.49572841375430   -3.78027201968860    4.07303966863459
H         3.60469628677903   -1.75029024258816    5.47282582938343
H         4.64921753791486   -2.60463297740909    3.22566560738186
H         5.45193283583974   -1.00830834565966    3.88666263509999
H         3.12855911210049    1.59710943356748    1.63730511871713
H         0.61222446579870    1.02634582567788    2.97858363563841
H         0.76216239119163    0.90605636187011    1.34647914679358
