30
 energy: -45.978534503056 gnorm: 0.128929226597 xtb: 6.4.1 (79825abcba525fcdf90b791dcacef51065a7a4e7)
C         1.08542710138964    0.18712049550802   -0.57860752454351
C         2.51056753359557   -0.04256815379596   -0.21255619669609
C         3.16068204225807   -1.26441479995466   -0.16051601142325
N         2.54156436817502   -2.45793263806286   -0.09064933405631
C         4.52371384121127   -1.10009057975915    0.14483938927913
C         4.89862209163964    0.21214830549772    0.24834395308291
S         3.61352919117364    1.27293828825631    0.02701404708178
N         6.24968453415254    0.38949164961662    0.38985456884558
C         6.88571109271309    1.05079376081049    1.56774155371513
C         6.93198212591816   -0.15247229865822    2.53196950025815
C         7.78888695709991   -0.99138826243173    1.58737631208400
C         6.93420188165670   -0.97854825005540    0.30891124014885
C         5.71402364616767   -1.95102755496103    0.37097122193413
C         8.96199541858208   -0.07540265110289    1.32574434063627
O        10.15355333459249   -0.32048276124903    1.20847478379628
C         8.38000563089056    1.31917043628859    1.33114827487625
H         0.51793293707813    0.38251236128769    0.33616936745024
H         0.47845897888216   -0.64042945215412   -0.95910103285031
H         0.94016756342657    1.06069074291242   -1.22336023924682
H         1.61401981840723   -2.48870621908288   -0.50202675385801
H         3.23098987127747   -3.13194377083856   -0.40943522372639
H         6.39006459097702    1.96750586867134    1.89664745293038
H         5.91192718304401   -0.49436586321922    2.73470724285483
H         7.34657833764355    0.02275234896001    3.53106154243003
H         8.17210129461541   -1.94143609065708    1.95448108741446
H         7.44915488544044   -1.11927091622058   -0.64979236207753
H         5.70688235655636   -2.46993551427911    1.33519981136890
H         5.89415836130941   -2.68140484665498   -0.42530893536027
H         8.46493644457838    1.76516389321281    0.33857562613457
H         8.79916114010070    1.97536958965610    2.09847618172745
