30
 energy: -45.972465077239 gnorm: 0.122636484082 xtb: 6.4.1 (79825abcba525fcdf90b791dcacef51065a7a4e7)
C         1.12034048790823    0.19323456511007   -0.15700331029970
C         2.59056899507324   -0.03525308679098   -0.09377963144873
C         3.25104319093228   -1.25102014976580   -0.15663317817603
N         2.59746611954776   -2.40929233511438    0.05292693248298
C         4.64739253318308   -1.12591034353405   -0.04413380774661
C         5.04123299501374    0.18410382957127    0.00050733602473
S         3.74524995047499    1.25465435405922   -0.00818634878939
N         6.38106017411318    0.44991347770587    0.10564522605473
C         6.74937663231484    1.07417787783526    1.41098232116321
C         6.63527948943032   -0.06888811146918    2.44059765325136
C         7.57205086371916   -0.98153821840885    1.65329126595147
C         7.01438628031319   -0.94016488515115    0.22066331828706
C         5.85971611915131   -1.97301466977984    0.02480494896696
C         8.78723075776073   -0.09740567125065    1.49419428948364
O         9.94894413972407   -0.46552718508147    1.58658065977354
C         8.26308712165063    1.30382771403773    1.28113595484454
H         0.74560585947020    0.41826364962133    0.84598235373166
H         0.74469538794210   -0.71524452452865   -0.63823196742656
H         0.73460812094298    0.96855523887577   -0.82783843821477
H         1.66036042215424   -2.60940548766001   -0.28219235163860
H         3.16728228610508   -3.24962350876886    0.03353515208836
H         6.20289666823142    2.01963533777333    1.45191475001721
H         5.59687027169651   -0.32726976856896    2.67179259966923
H         7.23935045634162    0.17276204429297    3.32234709093489
H         7.92864976089656   -1.95294696936615    1.99005866690595
H         7.74366816064950   -0.90370338630696   -0.59842797872249
H         5.86267324752830   -2.66967162171287    0.86962065763743
H         5.93913563741073   -2.47284518509780   -0.94670088556949
H         8.65208454842991    1.82744604120057    0.40601955287086
H         8.53837191520402    1.83870383668187    2.19393746511106
