30
 energy: -45.974176938503 gnorm: 0.119775119683 xtb: 6.4.1 (79825abcba525fcdf90b791dcacef51065a7a4e7)
C         1.12131817612367    0.19530163671156   -0.14598193014037
C         2.58062003217291   -0.07849645715263   -0.03088019184111
C         3.25039330383323   -1.28467622532621    0.09077679721925
N         2.69460410780860   -2.48940170159364   -0.13815065359547
C         4.64310024787438   -1.10233863458521    0.01852432307014
C         4.97178385392260    0.22613975573991    0.03729997097602
S         3.66687391820686    1.26476539081715   -0.17292112527267
N         6.30872723664982    0.48695093252744    0.18360629135324
C         6.80432013460856    1.13639904217812    1.43335539724375
C         6.70288596286516   -0.02440308418020    2.44428332740310
C         7.58284109865516   -0.96304946479428    1.62273350895633
C         6.98940569077281   -0.88520817984846    0.20608269534672
C         5.85954945077213   -1.94632611479666    0.01672598205941
C         8.85394193261121   -0.14963976460383    1.54316142863067
O        10.02607659824432   -0.42650173672266    1.75070527429129
C         8.32131129269658    1.22355109640586    1.20518677346873
H         0.50233832637487   -0.54156045235228    0.37453952271292
H         0.63617676537743    0.15688576770429   -1.12638315693909
H         0.76286438220695    1.10858842266826    0.34120335223869
H         1.71327370359747   -2.69472879419279    0.02106215326418
H         3.25588155272389   -3.31284937329468    0.05710443347244
H         6.21871097292382    2.04866645388651    1.57132534025293
H         5.72332917825781   -0.41991435903750    2.73159017599326
H         7.13374855176220    0.33358650484144    3.38607921090950
H         7.76026716015473   -2.00248276762052    1.89163575648488
H         7.66382690426117   -0.94139926985585   -0.65768269178971
H         5.83451953931324   -2.68972226571296    0.82033589971512
H         5.99734296808690   -2.44936160796003   -0.94656516317368
H         8.45644085411429    1.53315697948001    0.16730042781422
H         8.88073288298979    1.93397727447943    1.81953432426618
