30
 energy: -45.972227236684 gnorm: 0.133500524860 xtb: 6.4.1 (79825abcba525fcdf90b791dcacef51065a7a4e7)
C         1.07605582525637    0.20666732009153   -0.32240811936468
C         2.51896755951693   -0.07092658157306   -0.08007975810298
C         3.20932823136908   -1.26186058017367    0.07270967722312
N         2.57981551504103   -2.45196864599103    0.07813129452565
C         4.59527125281330   -1.05769351316719    0.19752065894190
C         5.00414618571220    0.24156673278141    0.06341486434918
S         3.66335481738805    1.22765830812112   -0.17244095656475
N         6.35047195634029    0.39046840526738    0.26855098909131
C         6.77764439106913    1.02313364797519    1.55172143600987
C         6.81320420603504   -0.14735679199424    2.55591931411528
C         7.72757614642958   -0.98484145408349    1.66548932319750
C         6.98284778626357   -1.00383973650749    0.32007373165696
C         5.76057678250990   -1.97068018381070    0.22170961068962
C         8.85606329707751   -0.04235638465913    1.31634317941866
O        10.03815079244538   -0.33303664479131    1.20771163478591
C         8.26176608883926    1.34702037275655    1.32063974178087
H         0.60670878559939   -0.31567079057183    0.51659165270181
H         0.84144027836504   -0.22781214477293   -1.29924365031708
H         0.91685112907383    1.27506269617448   -0.50438765296427
H         1.92589428676207   -2.41437172334315   -0.69742706829895
H         3.23035967854536   -3.22695525399479   -0.00795602038545
H         6.25557288370761    1.97033545259895    1.70810464923304
H         5.77698282115997   -0.49269103174429    2.63005021960302
H         7.17891253043282    0.13013934254665    3.55092279170640
H         8.02511176117963   -1.92117281928012    2.13342751508497
H         7.56652992289641   -1.07523116756517   -0.60637674293764
H         5.73368025394373   -2.66859802717303    1.06506036257157
H         5.87603780308070   -2.42873357780123   -0.76663113267960
H         8.42791781257482    1.87283234935235    0.37870596621437
H         8.70747794654819    1.92153844519106    2.13694281477615
