30
 energy: -45.982169841831 gnorm: 0.105269904933 xtb: 6.4.1 (79825abcba525fcdf90b791dcacef51065a7a4e7)
C         1.17573238205807    0.18673175684117   -0.28309257137085
C         2.61334183545819   -0.09639373044524   -0.01683197186261
C         3.30009211747649   -1.29831536928414    0.02816459875847
N         2.60015570912143   -2.44719379225178   -0.02512953955079
C         4.69732699973887   -1.14745310453170   -0.02729078824008
C         5.03799022150115    0.17793619408304   -0.00422485625917
S         3.72777221680500    1.23099489314839    0.00682968990424
N         6.37511034256055    0.42249462525703    0.16649877796703
C         6.74252684648877    1.08796029926709    1.45157797282463
C         6.61855822697930   -0.07509657280576    2.45738920742711
C         7.64118584546826   -0.90674345160824    1.68737726381288
C         7.00276611653773   -0.96945664846691    0.28966067020153
C         5.86560060208210   -2.03369035081916    0.17712811538166
C         8.82004879781966   -0.00662608933484    1.39800681629126
O         9.97047221308568   -0.38178805073098    1.22652463158668
C         8.24344170898964    1.38780748344643    1.31643059239553
H         0.52428799508310   -0.13035063088734    0.53673871728355
H         0.85383384762705   -0.17381994547204   -1.26513550579606
H         1.01661113313682    1.27052104665249   -0.27954728189643
H         1.59405948975306   -2.31428619280557   -0.05009456543387
H         2.88893585049580   -3.29169778820287   -0.50952815818435
H         6.08377997493395    1.94218603262208    1.62638237635749
H         5.59618134674387   -0.45188800639553    2.56359474828232
H         6.95460112489645    0.12523575685236    3.48097151032967
H         7.88735720845887   -1.88443294756666    2.09692936650236
H         7.85516898159930   -1.03524016703605   -0.39821572794850
H         5.76763510719611   -2.71763910863031    1.02663979472820
H         6.06528444932144   -2.73019201658522   -0.64443952067108
H         8.40304288437715    1.80464874372308    0.32039108754478
H         8.64955780964552    1.94145579796777    2.16709153471933
