30
 energy: -45.979590757085 gnorm: 0.122446484903 xtb: 6.4.1 (79825abcba525fcdf90b791dcacef51065a7a4e7)
C         1.11422304490709    0.23274165387745   -0.53714227548912
C         2.54151091850103   -0.10228711619579   -0.27564509910818
C         3.08967354543165   -1.25430287046137    0.26346875528434
N         2.55408078142553   -2.44173783970462    0.60377960709289
C         4.47916723257991   -1.13326439009527    0.44445779677011
C         4.97513419349805    0.09614473098570    0.10414874708701
S         3.76253645273339    1.11393812737463   -0.46103208063945
N         6.33342366748763    0.25994311489222    0.03297711564357
C         6.89152112487943    1.20594400338746    1.04435119640103
C         6.87737248786428    0.40720983273841    2.36402891683130
C         7.65170487089727   -0.79710855455007    1.83454921568468
C         6.89137215261116   -1.07820761099122    0.52764376652406
C         5.64069596193819   -1.95269764696376    0.85851928152796
C         8.89126903531484   -0.10512160183796    1.31657322911364
O        10.02725967191289   -0.55503191530799    1.28950562244470
C         8.40937682919516    1.23346732642393    0.80712746370205
H         0.80670055368179    0.21868814949555   -1.58703598354443
H         0.82563415444492    1.23530923601145   -0.20608453525991
H         0.51327349040764   -0.53193555351671   -0.03309885462211
H         1.62841437418801   -2.65710749179946    0.24702351858642
H         3.14191855727035   -3.26430502347301    0.50863253124646
H         6.40715164138767    2.17869240179174    0.92879869563744
H         5.87346542217296    0.00745794290906    2.53974151068932
H         7.31183309006652    0.79052306518695    3.29413297210483
H         7.82526800363177   -1.65902656689338    2.47578489441315
H         7.62904572006868   -1.44963329030116   -0.19483303654894
H         5.53930719559277   -2.12872182637814    1.93452533993438
H         5.79687032164524   -2.94163724589409    0.41403122199209
H         8.69740307035681    1.45401090433354   -0.22230212688450
H         8.86313704916197    1.94481465855113    1.50222991461777
