30
 energy: -45.976024113860 gnorm: 0.127404925684 xtb: 6.4.1 (79825abcba525fcdf90b791dcacef51065a7a4e7)
C         1.07565003274529   -0.26644962044196    0.22813263863251
C         2.52513674936945    0.02663561593122    0.05244824605913
C         3.35640455506627   -0.52455202654855   -0.90851601233468
N         2.95233443921964   -1.20085351750683   -2.00031110337975
C         4.70655811699690   -0.34374174443583   -0.55852592690154
C         4.86283332614812    0.37345261020969    0.59665830069529
S         3.41036700344433    0.88636270288961    1.26970428183444
N         6.15906341022223    0.44299234671594    1.03460513839928
C         6.64328035929393   -0.05933393254232    2.35463175479239
C         6.91582469111757   -1.52315868951269    1.95131746128920
C         7.91328963757301   -1.07031519159528    0.88815302326077
C         7.04808691024062   -0.19721804961283   -0.03610343609149
C         6.01280369554250   -0.91351290924395   -0.95996095008936
C         8.87697586353949   -0.09613521210994    1.52529242265611
O        10.02392849675897    0.07964002035145    1.14158758794526
C         8.01343438453348    0.60949087264290    2.54507835727344
H         0.59059084589663   -0.36548114462121   -0.74754902767306
H         0.57696527003400    0.61901930262147    0.63468253151000
H         0.85270867810951   -1.08130544919359    0.92544067989098
H         1.95817350899106   -1.37299154647230   -2.11224784560678
H         3.36870826750243   -2.11399450467306   -2.15532516396713
H         5.93766802635707    0.11146153785398    3.17142167620684
H         6.00372944094211   -2.06882666076215    1.68895395647250
H         7.37816347011063   -2.14175079277325    2.72872679204394
H         8.45019899637596   -1.81856007562565    0.30843934214353
H         7.61979518602142    0.55214857440649   -0.59796762881205
H         6.10766362021397   -1.96758201740549   -0.67890375971956
H         6.23207676627813   -0.69606683066988   -2.01095957863613
H         7.95527631296702    1.69591549760608    2.45776831712007
H         8.38698058847875    0.35873302410835    3.54140386586905
