30
 energy: -45.975196951703 gnorm: 0.133254736519 xtb: 6.4.1 (79825abcba525fcdf90b791dcacef51065a7a4e7)
C         1.11668312010156    0.14504119785700   -0.48958934995535
C         2.55196431031566   -0.01571409947186   -0.12640708063858
C         3.18011103902573   -1.23583161959340    0.06070580386307
N         2.61248975649073   -2.45503132226679    0.12419644550234
C         4.57481316334683   -1.06794821521793    0.12941688809358
C         4.96345032216162    0.24362626478510    0.17384470425586
S         3.68622832682929    1.29497942663478   -0.12462904213051
N         6.32264049563238    0.39436270695503    0.25585828509637
C         6.81267926614559    0.99888167042925    1.53009798823475
C         6.81073917450037   -0.17231622670470    2.53409872085563
C         7.78347559791246   -0.94858608370426    1.65006753791267
C         6.91078368263014   -1.01416136291953    0.38545965987783
C         5.70630455275651   -2.00523110348194    0.31188550604502
C         8.89290801558924    0.00331746068913    1.26704829620483
O        10.05073722496899   -0.37678342534759    1.17441184507905
C         8.27708411932146    1.38329402355648    1.26805954519393
H         0.54190950777392   -0.46909961482970    0.21006108530472
H         0.79595157088342   -0.00067627257575   -1.52589153818854
H         0.84048233107609    1.16413001314290   -0.19786605476355
H         1.80990351844329   -2.53220420515372   -0.49258306512271
H         3.26207217627304   -3.22373346554088   -0.01131252361273
H         6.10967335126899    1.81775289806408    1.70167368891130
H         5.79208512139026   -0.55350080754657    2.65879083336118
H         7.20034261139709    0.01269982547714    3.54145011246863
H         8.15636705735885   -1.92367684546059    1.95724824060838
H         7.50377202431141   -1.21183720623157   -0.51641679698640
H         5.67187218515906   -2.50904241180698    1.28350364904667
H         5.88542186821961   -2.58402755376663   -0.60073338966811
H         8.45420139191203    1.99499461216233    0.38161962586125
H         8.80212366498505    1.94258941507409    2.04690672188794
