30
 energy: -45.970080174520 gnorm: 0.138320926318 xtb: 6.4.1 (79825abcba525fcdf90b791dcacef51065a7a4e7)
C         1.11175453810519    0.13459599811465   -0.57277351308453
C         2.54346387518467   -0.03750468819350   -0.20079850148323
C         3.15894311863295   -1.27598490890466   -0.12584315776891
N         2.54738807934126   -2.44631312243322   -0.38853151757411
C         4.54117801687934   -1.12793488564780    0.08771693254964
C         4.88702973826116    0.19084141239416    0.20794974202034
S         3.63351212193773    1.29341967683642    0.01112286402768
N         6.22572891898404    0.37776846636938    0.43108289593853
C         6.81393894687935    1.02026681363822    1.64371344272892
C         7.10400257072106   -0.08714228111551    2.67775113252026
C         7.78112721010283   -0.98704323612909    1.64721599525927
C         6.91712971755112   -0.98805154317537    0.37496142302612
C         5.70336372891376   -1.96692566827227    0.45850742716465
C         8.90612533194476   -0.06045334437160    1.24787305458338
O        10.09448117507007   -0.27498864026228    1.05969316583700
C         8.27762875606399    1.31343216840116    1.27959149138089
H         0.54733855519593   -0.38012236076761    0.21051696625465
H         0.85264006561859   -0.21453601604057   -1.57725897684003
H         1.09591232119637    1.22919212338505   -0.61201255829208
H         1.53318844946559   -2.41561481008291   -0.35732238167163
H         2.90420473184416   -3.32070970508441   -0.01525483916202
H         6.25337821420107    1.92170892831489    1.90328888407215
H         6.13885365572806   -0.42806037464802    3.06604008893463
H         7.76434065979630    0.29502788397516    3.46431211369723
H         8.18163332632775   -1.94530721612145    1.97207752662551
H         7.50842338267638   -0.97079763234639   -0.54924968036518
H         5.46743129223027   -2.54882517712119    1.35560389937247
H         5.76531277291131   -2.76588235966675   -0.28834738191024
H         8.32235953686031    1.76555675986982    0.28716699585380
H         8.81158391206194    1.89498511252554    2.03574547590654
