30
 energy: -45.981108321263 gnorm: 0.115345415461 xtb: 6.4.1 (79825abcba525fcdf90b791dcacef51065a7a4e7)
C         1.14484063255728    0.17403958685995   -0.51607189708365
C         2.54979767491885   -0.12824658525892   -0.12556650464549
C         3.19093467160930   -1.35591985700332   -0.12027961034650
N         2.57069555016886   -2.52498112046108   -0.36781156743598
C         4.56203014110137   -1.11964839889684    0.08556752999304
C         4.87545880807829    0.19037271297413    0.32815240133052
S         3.57362016804936    1.24067005163775    0.16136598134072
N         6.22185065362663    0.43723238211561    0.38414272491482
C         6.89334923855634    1.13226950605144    1.52224686999679
C         7.01238387965953    0.02604813565265    2.59081169339715
C         7.78566037326114   -0.92575545811191    1.68172668270341
C         6.87785575273452   -0.94592651527123    0.44051426046207
C         5.70232643483564   -1.97256725454778    0.49093222076648
C         8.93520275085346   -0.06771108813568    1.20635675554212
O        10.08486475480730   -0.44150246953205    1.02695788718343
C         8.37510684711949    1.33533785704765    1.17000233402844
H         0.38677507004009   -0.00012440111976    0.25337457944084
H         0.85946709805553   -0.44049369949862   -1.37568535938203
H         1.05491592082696    1.24266742754874   -0.73940897076691
H         1.60812484041400   -2.48281002526331   -0.68749346655451
H         3.13215896064963   -3.31648906773941   -0.66697204983412
H         6.34296434506914    2.01744347154397    1.85049852419341
H         6.03921962698293   -0.34783221551069    2.92498336769652
H         7.51363768242852    0.52584505026417    3.42730812012162
H         8.07551688097345   -1.87363407194571    2.13085846342665
H         7.40079099302345   -1.08656576035680   -0.51387108712977
H         5.62169307095918   -2.45448328774270    1.47088550006966
H         5.75887258304811   -2.75357757784421   -0.27508800775984
H         8.43198802427697    1.64188130493858    0.12400065408829
H         8.89279852094123    1.95775109072313    1.90463005013456
