30
 energy: -45.981399523150 gnorm: 0.113058383563 xtb: 6.4.1 (79825abcba525fcdf90b791dcacef51065a7a4e7)
C         1.15266759539772    0.24069329829450   -0.46664252971912
C         2.59046942288175   -0.04735502859833   -0.20677758265809
C         3.23283030108706   -1.26504621380145   -0.05555925502923
N         2.58569109277997   -2.44456721971207   -0.10668587263846
C         4.60139514592248   -1.13262125064271    0.24040351781504
C         4.98238042734391    0.18157456360386    0.20910088446586
S         3.70498945057682    1.25920291459059    0.02822663553668
N         6.32495306719912    0.41826784015162    0.34445458411887
C         6.82581653256600    1.11574410517710    1.56590071344252
C         6.81216939839638   -0.06893549023186    2.55386516555076
C         7.66940943914511   -0.99356456256520    1.69332884124680
C         6.96470531973238   -0.97350982515739    0.32653906520407
C         5.79770654983480   -2.00434159969565    0.20863193729085
C         8.81967963468743   -0.07513112730239    1.35124276027120
O         9.96622517589510   -0.43527369687414    1.12907767703349
C         8.31409302079459    1.34607730177854    1.26110850786371
H         0.55426340930479   -0.10477530215856    0.38165473725267
H         0.73605800992220   -0.48454325036984   -1.17268284688048
H         0.79455021295021    1.23684969367124   -0.74834407425836
H         1.65086392575867   -2.34383759152597   -0.48939855525633
H         3.12071509168767   -3.27124429118636   -0.35483366979832
H         6.25438373033006    2.02446571981243    1.77058390235258
H         5.77695848336045   -0.39050012251770    2.70696786275741
H         7.18291398555463    0.08572652501348    3.57337814511408
H         7.94252519340723   -1.97710674035821    2.07050597172334
H         7.62331304903779   -0.94648249724133   -0.55072796412421
H         5.83861989593982   -2.63419681236835    1.10342897728013
H         5.86962424502324   -2.69840837897966   -0.63579730903003
H         8.50957814172031    1.75535845182830    0.26833543430237
H         8.69772749360508    2.04579548456387    2.00830315371231
