30
 energy: -45.976950118782 gnorm: 0.129297551272 xtb: 6.4.1 (79825abcba525fcdf90b791dcacef51065a7a4e7)
C         1.09404462761341   -0.39102368484212    0.20961278313140
C         2.54636044010365   -0.07237089438401    0.12585793915582
C         3.34861315970218   -0.64612162932600   -0.84649330186665
N         2.94992405627660   -1.46032735084191   -1.84187710336437
C         4.69550575917584   -0.44269549562151   -0.49635307795006
C         4.88158102367678    0.39423103050903    0.57049754960285
S         3.43821630920444    0.79267663678245    1.33447756507053
N         6.17795369201925    0.64995196159917    0.93225760445519
C         6.68998879813919    0.26202554430696    2.28007107315611
C         6.75195945506658   -1.26441807011498    2.06593261894601
C         7.75304912693586   -1.15413302264302    0.91877140441487
C         6.98308526618487   -0.22444467247708   -0.03409774142800
C         5.99932524500432   -0.73664147724088   -1.13331246880072
C         8.81229382900896   -0.28386853628774    1.55462105267834
O        10.00637321104786   -0.26185253993829    1.29516700870381
C         8.14715186611313    0.70473119524147    2.48404676253103
H         0.49569017617588   -0.12878522119303   -0.66802456417602
H         0.67609207722303    0.02327734034272    1.13248593055350
H         0.94638385547467   -1.47641319015959    0.20204395480396
H         2.20651818913531   -0.99471190718020   -2.35282451380674
H         3.76195344598000   -1.58268288838937   -2.43925501288868
H         5.89373459671954    0.54131972649512    2.97446263040014
H         5.78213303724272   -1.65084449551871    1.73636134522259
H         7.07266896974018   -1.87204678082597    2.91957854144676
H         8.21115681037189   -2.04764740153138    0.49927238687203
H         7.78008796569985    0.34468494474168   -0.52904241735362
H         6.08218539965268   -1.79913751344920   -1.38488671744285
H         6.19920562431968   -0.10035441091804   -2.00230510047550
H         8.33446062685028    1.73033219788482    2.16096491328723
H         8.50831693090043    0.63386676642984    3.51342463986008
