30
 energy: -45.972415296499 gnorm: 0.121359033298 xtb: 6.4.1 (79825abcba525fcdf90b791dcacef51065a7a4e7)
C         1.08912749050552    0.17343340334815   -0.29501721428532
C         2.54288995766199   -0.05855313820759   -0.07022254263544
C         3.21875242085696   -1.26458862651899    0.01317181704532
N         2.60125204981584   -2.45317446221194    0.14966315170571
C         4.62060557569882   -1.15350245250699    0.03699701703180
C         4.99771550526666    0.16216393247104    0.04409094648730
S         3.70472390046535    1.22756252252646   -0.09311183654152
N         6.35363362048562    0.35226083173879   -0.00275816441531
C         6.88697222922841    1.18638791560219    1.11485085526401
C         6.68679479797196    0.18433047028587    2.27050461595969
C         7.64471208346255   -0.83250083031049    1.65506107554524
C         6.96223734526588   -1.02269285229642    0.29007770434482
C         5.77289655578387   -2.03347394613796    0.33690104300787
C         8.92490383097068   -0.03977615179857    1.52715071290732
O        10.02976054378252   -0.52727898795060    1.71492532017700
C         8.41797736456228    1.30714077402179    1.06626486971062
H         0.43989281013001   -0.39398953313871    0.37845878245643
H         0.78326117378405   -0.00028969146869   -1.33149712661719
H         0.71465463169767    1.16349235455682   -0.01308685719561
H         1.61593521925158   -2.65587414541139    0.01335145256907
H         3.01692637470139   -3.13616570152546    0.77573088866770
H         6.22264169533581    2.03889145612636    1.27643142065704
H         5.65272649072374   -0.17509940926775    2.27483857277193
H         7.01065889766525    0.52792825268892    3.25935809879867
H         7.79758905225638   -1.73794475867955    2.23902164121996
H         7.68010319642545   -1.32189213667723   -0.48402853127707
H         5.69774821062728   -2.67706915227278    1.21961910372961
H         5.88515785941825   -2.75011190487342   -0.48394548389158
H         8.79796599732449    1.41535272902251    0.04880593706660
H         8.82311733419067    2.02767319870874    1.78164967031392
