30
 energy: -45.977110232364 gnorm: 0.105461977639 xtb: 6.4.1 (79825abcba525fcdf90b791dcacef51065a7a4e7)
C         1.09106993003810    0.12277286376757   -0.00110218058317
C         2.55381781117757   -0.14033232598766    0.09334359646088
C         3.37288749869278   -0.97116160469481   -0.65305699861230
N         2.99824110413813   -1.97281398042069   -1.47098455242950
C         4.71020726169335   -0.67298058076150   -0.33562357936736
C         4.90011061769197    0.27893170448619    0.62928055029167
S         3.44122283813212    0.99953186073599    1.05130887547074
N         6.19270194747562    0.67474294765960    0.85151177823626
C         6.65822828557370    0.35408189850749    2.23344148106792
C         6.79446428663833   -1.18177483588549    2.18538331215499
C         7.74950888229702   -1.13661389854050    0.99535285795988
C         7.01800613272128   -0.26175179083418   -0.03646320820360
C         6.00422850358186   -0.96663472033130   -0.99239067957567
C         8.82777301822973   -0.19999201248523    1.48906358209276
O        10.01123150062591   -0.30583706451000    1.20297003549631
C         8.11027601945092    0.85169331691309    2.30314676561107
H         0.56443301441297   -0.82467370443154   -0.14957081061976
H         0.69836874060285    0.74571686563833   -0.81088676693821
H         0.68100404836061    0.57882700208437    0.90652768287794
H         2.00120261204302   -1.99630556727377   -1.66040388027439
H         3.59471598751872   -2.79274065198832   -1.52720693688225
H         5.95152685270306    0.79117647885677    2.94317878146202
H         5.82876788410072   -1.69219939568737    2.11187743697747
H         7.40184983609726   -1.45931760013358    3.05419365367447
H         8.13372525909746   -2.01647404192852    0.48306981160705
H         7.75927026001672    0.30536401177668   -0.61352404960564
H         6.19590169155461   -2.02281461760804   -1.20872063328551
H         5.97455277869428   -0.31497894167186   -1.87240526840810
H         8.08914301371811    1.81665722675645    1.79351757152067
H         8.54866399454948    0.93539359555585    3.30109016525878
