30
 energy: -45.982579760321 gnorm: 0.113779649914 xtb: 6.4.1 (79825abcba525fcdf90b791dcacef51065a7a4e7)
C         0.99905798785051    0.02751160878178    0.03171927864420
C         2.48759741178435    0.00160573730173    0.06852906696391
C         3.31397313185215   -0.77274772874181   -0.72880784185383
N         2.88718689857244   -1.36694309264744   -1.85905482567303
C         4.68419987161577   -0.61957621723536   -0.45110799169838
C         4.83509647373597    0.18834149871466    0.64330483801647
S         3.41763714159535    0.84630407415012    1.26267576296625
N         6.13108355991768    0.51029299522557    0.94926286957803
C         6.65337730108640    0.22600119243471    2.31880856572098
C         7.01437730043220   -1.26092232909801    2.12268822492455
C         7.91622227033974   -1.07573778850689    0.90502468007600
C         6.97858923889882   -0.30075678976792   -0.03591800053379
C         5.99332277602094   -1.12039247839498   -0.92802208278143
C         8.89290587913938   -0.06040498624127    1.45169900344808
O        10.10357293194805   -0.11256333524187    1.29298080065167
C         8.06172020318660    0.84016675158292    2.33582361307460
H         0.56356252034990   -0.51473167130232   -0.81288731356998
H         0.62842414434631    1.05671403457173    0.06910165979130
H         0.65380252206003   -0.53740416566224    0.90441636023155
H         1.91058079832747   -1.64349024196518   -1.87577257858970
H         3.45380226039279   -2.12701026281522   -2.22301623769012
H         5.92504714082449    0.49046103953896    3.08939392408262
H         6.17653927296888   -1.90517114381703    1.83724682780295
H         7.59596772353377   -1.85465781656886    2.83683761654755
H         8.37589047550443   -1.92701628095950    0.40678770103207
H         7.59894417529343    0.38012656814800   -0.63228169919376
H         6.06713426012266   -2.19896933742395   -0.75401904472471
H         6.18516332129459   -0.80360484544660   -1.95894612861621
H         8.06949711524796    1.89224615223144    2.04532004524813
H         8.52343750098682    0.66512064349501    3.31114754881298
