30
 energy: -45.974698193509 gnorm: 0.121516268453 xtb: 6.4.1 (79825abcba525fcdf90b791dcacef51065a7a4e7)
C         1.10425864561198    0.22950396996859   -0.43197837806917
C         2.55497115594913   -0.05786286977211   -0.25696631697059
C         3.21192983628470   -1.27136486224003   -0.13828817244225
N         2.60244342772208   -2.45673778619341    0.05168613173065
C         4.57877076997648   -1.11341413134410    0.15308356933027
C         4.94267855504137    0.20565759740836    0.18242943510534
S         3.67204365401180    1.26129836027177   -0.12875474590680
N         6.29116695948016    0.42901083105140    0.27483064243632
C         6.79310008092309    1.03878394065393    1.54191702315157
C         6.88216070002449   -0.16601150989451    2.50121983147847
C         7.74080897546424   -1.02468818262358    1.57616865208139
C         6.96382334256344   -0.94708022214111    0.25125555634522
C         5.78192749805454   -1.96730742193762    0.27696621540611
C         8.87092929361148   -0.04371151378013    1.36598485432331
O        10.03811962906764   -0.31027129243658    1.12054793912861
C         8.29415578264784    1.35103839659391    1.44068701669776
H         0.66347415046791   -0.43993189139387    0.31274238959124
H         0.79880053094122   -0.23809143364786   -1.37329362795151
H         0.85599108213656    1.29567717543775   -0.47159261408064
H         1.59545209226468   -2.50145858220647   -0.06867081702435
H         3.19264584180980   -3.22453273963962    0.35725937827951
H         6.20640545978021    1.89889155558229    1.87389585082890
H         5.84815525673241   -0.48106895769051    2.67464830372638
H         7.28963533576131    0.11391872293639    3.47916772863973
H         7.95790104775536   -2.04420426432092    1.88868746819362
H         7.45516413078560   -0.99537420409306   -0.72871586112331
H         5.78936181010444   -2.47119005180977    1.24912888677180
H         5.89050638275178   -2.73328854332651   -0.49856273060073
H         8.64058800742470    1.90558469937599    0.56673794428001
H         8.53573539751383    1.97074439127440    2.30826096371384
