30
 energy: -45.984004176684 gnorm: 0.103633657612 xtb: 6.4.1 (79825abcba525fcdf90b791dcacef51065a7a4e7)
C         1.12924844154146    0.26060477585305   -0.37601490145397
C         2.57410740657407   -0.08095084224809   -0.25983391757355
C         3.20903010882121   -1.31111020613409   -0.21685281320099
N         2.60310245855024   -2.51316849601496   -0.24094489551746
C         4.58359201778026   -1.12377009974142    0.01462781032926
C         4.91439571580683    0.18856785904220    0.21853529250920
S         3.62588254155941    1.25746113654392    0.06711860296950
N         6.25975835216366    0.41966075660274    0.33447088587329
C         6.81043163965654    1.10742353142898    1.53987923673679
C         6.92071016234050    0.00699363081331    2.61534119794079
C         7.68571905896417   -0.95705032920289    1.71217853032116
C         6.90252237677888   -0.96978566072191    0.38871143784948
C         5.73531301215221   -2.00445321580213    0.31463239511053
C         8.86888672350980   -0.09921281939339    1.32760933071100
O        10.03120346213571   -0.33359008096487    1.03144422246176
C         8.30544029266090    1.30035851267519    1.24214815653386
H         0.61690530993017    0.47528907269997    0.56656641719464
H         0.65417889031246   -0.59140567617098   -0.87241355853228
H         1.00969491594007    1.11582635719969   -1.04998401648399
H         1.59470026285994   -2.60947237829749   -0.30703474911479
H         3.18769403124555   -3.34095468383384   -0.30610399719212
H         6.24522965690240    2.00175273458447    1.81360834222971
H         5.94239236066850   -0.35871266264410    2.94345561900352
H         7.59187664803164    0.25454726401561    3.44542032070980
H         8.05652491648366   -1.93223538843155    2.02157654847363
H         7.55725139703294   -1.19205655590244   -0.46335523382638
H         5.61838672803707   -2.57717619555748    1.24057508447117
H         5.93731485801097   -2.77001321976400   -0.44238459713374
H         8.69424794642122    1.80355088844897    0.35504618367710
H         8.75936192798647    1.87866944239403    2.05121700398744
