30
 energy: -45.966623207666 gnorm: 0.124589142511 xtb: 6.4.1 (79825abcba525fcdf90b791dcacef51065a7a4e7)
C         1.11261910605156    0.28797545872294   -0.09537091503813
C         2.57271448201679    0.00119654072672   -0.03491404068340
C         3.26164631994644   -1.12738930481515   -0.44714356823086
N         2.66145587816871   -2.22441171461209   -0.94612867889734
C         4.64657460089187   -0.97638682148133   -0.25408414324214
C         4.92148857382788    0.29603217850039    0.16854151909911
S         3.60422818197325    1.28172415588901    0.51345082523308
N         6.21195542891314    0.45077194557712    0.60166563858898
C         6.65067804612030    0.54115875070688    2.02596219636766
C         7.00778142873228   -0.86174872265890    2.55892893628025
C         7.90134000906246   -1.10643788211707    1.34566785441903
C         6.97419470768214   -0.80145406480070    0.15717686049252
C         5.88249853091063   -1.78241909935076   -0.37602987254706
C         8.86522298593127    0.05619198406489    1.39938738987065
O        10.02485728536013    0.01527340882374    1.01572003943125
C         8.02680272726778    1.21188873150320    1.89435395973477
H         0.45913590919464   -0.40331733029161    0.44510884060138
H         0.84047033105834    0.15205794437520   -1.14679185302898
H         0.91961944866654    1.35750645452811    0.04169092362805
H         1.70866791134774   -2.21625616534657   -1.29633700256703
H         3.15690467150164   -3.10620423546930   -0.85560006179665
H         5.99292638262231    1.16398053255550    2.63724069623045
H         6.20404631250464   -1.56804491123659    2.79057833937816
H         7.59062711189361   -0.68929034407054    3.47070062929064
H         8.35483375522282   -2.09290728871187    1.27196880208135
H         7.65010573788770   -0.39412817498774   -0.60526786083933
H         5.92653532925737   -2.68821625195222    0.23768464882343
H         6.12453087027954   -2.07472763464044   -1.40361814476675
H         7.82911438734502    1.99692305042533    1.16225812896846
H         8.31727866673566    1.74883642771692    2.80121209815938
