30
 energy: -45.970691492939 gnorm: 0.128687157497 xtb: 6.4.1 (79825abcba525fcdf90b791dcacef51065a7a4e7)
C         1.11820629649528    0.14625526462071    0.00080493697025
C         2.58789599126235   -0.07054707120785    0.10465416921939
C         3.24373500320702   -1.28584949384653   -0.00108849435781
N         2.69505882726453   -2.51503923143543   -0.02792016133275
C         4.63416092012731   -1.07570346122727    0.02449417377091
C         5.09759511148472    0.20325328744587   -0.12629927877816
S         3.75219281051066    1.20644128448518   -0.03021313262894
N         6.43685267309786    0.44156102121389    0.03631754345563
C         6.83426890896554    1.18676325487049    1.26757785779003
C         6.57334147766888    0.12324026560340    2.35411431536418
C         7.54401801544187   -0.84487108247114    1.68264603710872
C         6.93420284308967   -0.98703372244600    0.27799675168356
C         5.77575472313394   -2.01644675781807    0.08640052547510
C         8.80985514712003   -0.04172667460269    1.49217346222473
O         9.90760015849987   -0.57487524770150    1.55801541417800
C         8.35840321972016    1.38129987661722    1.25816064193289
H         0.60880420447127   -0.45089748022097    0.76301388648119
H         0.69528332836677   -0.16708608839127   -0.95887099111310
H         0.91037394668169    1.20875809314958    0.16761268744880
H         1.77028581457063   -2.55867118116692   -0.44434352569018
H         3.29805001546053   -3.28517411031146   -0.30089797435818
H         6.15104142403632    2.03845602800041    1.31258063667645
H         5.60104613473460   -0.37981233972389    2.36337332053666
H         6.93326571840997    0.34307374937536    3.36550265973133
H         7.68686755671185   -1.88663666801865    1.96287538771614
H         7.71529771253062   -1.21276751652994   -0.45890698234457
H         5.77652110728269   -2.70557234505969    0.93737559798387
H         5.76211671364468   -2.56935446760173   -0.85915151098181
H         8.88594629353138    1.76713185107820    0.38400055240967
H         8.59481977168669    2.11598253423255    2.03238889669547
