30
 energy: -45.977245689669 gnorm: 0.123814058534 xtb: 6.4.1 (79825abcba525fcdf90b791dcacef51065a7a4e7)
C         1.10706838194803    0.18839009354248   -0.13096904836191
C         2.57891736786441   -0.03520134586688   -0.09297999288244
C         3.24347450859093   -1.24765085314796   -0.17419772363799
N         2.68878672414793   -2.47402072149434   -0.14239678226918
C         4.63097717066714   -1.15840357845905    0.03786678567707
C         5.00652583275683    0.15678292634107    0.08774602672210
S         3.72540103021278    1.24387804014072    0.13941338240761
N         6.36068801631104    0.36261010255264    0.06080956999875
C         6.77894201264654    1.13372735465838    1.26899406226174
C         6.66122742991143    0.06272794100943    2.37300007648195
C         7.57979151979956   -0.95134133019656    1.69607637312289
C         6.93170298216284   -1.03789107328243    0.30409405527477
C         5.79433103953038   -2.07419534292302    0.03789696462593
C         8.81058717890365   -0.09171871830462    1.52328921603488
O        10.01441964732401   -0.26722719389226    1.63995471650129
C         8.30559295145462    1.29822333340528    1.21245592934526
H         0.66844888782230    0.20326961672694    0.87124645856676
H         0.63647596309768   -0.56020925522194   -0.77607858921397
H         0.87208818721370    1.14480943129155   -0.61052898723688
H         1.68109441286355   -2.59627172541750   -0.13107458243905
H         3.14590964532608   -3.09443011428646   -0.80372408659941
H         6.19116997741178    2.05201819521874    1.34296427751246
H         5.69482524781548   -0.33483219833380    2.69937202105362
H         7.13292347152783    0.27986380711208    3.33795264658611
H         7.79349153175846   -1.92906150225491    2.12340012596768
H         7.69445358956614   -1.11445009116255   -0.48104432953262
H         5.75117732980793   -2.74775525094084    0.90016608855560
H         5.99810953228409   -2.62701231728949   -0.88559062206470
H         8.74561751604609    1.55850504444733    0.24811383120251
H         8.70722611175660    2.05199478638908    1.89480494936921
