30
 energy: -45.966999133167 gnorm: 0.133785848531 xtb: 6.4.1 (79825abcba525fcdf90b791dcacef51065a7a4e7)
C         1.17635186555860    0.18427264340829   -0.21666364514674
C         2.60830064860228   -0.17697143146783   -0.02482754437497
C         3.24793709948739   -1.40317904865495   -0.09930147678888
N         2.53676286455558   -2.54539051682047   -0.14680998208430
C         4.62973258203927   -1.16017325453494   -0.00086627136113
C         4.96110070022972    0.16714344313323    0.03994837824794
S         3.64181842149105    1.19980779940130    0.17715135225292
N         6.29683020764907    0.44999065931061    0.15250838825728
C         6.84736439867521    1.15421765009875    1.34843666698580
C         6.68781644295049    0.08593026056947    2.44981410118228
C         7.60814451495561   -0.88301050030675    1.71193049595316
C         6.92890816017784   -0.93366972099580    0.33309185491913
C         5.84460306399681   -2.00643339928451   -0.00136727778100
C         8.84702622910069   -0.05374299452265    1.46464141834680
O         9.98670517084954   -0.46060600156827    1.63558315311952
C         8.35333030863059    1.32627248434138    1.09667807299694
H         0.73046267274438    0.36756354046338    0.76549298380407
H         0.64400810317063   -0.39849373395873   -0.97496305270449
H         1.30515637567192    1.14840376719481   -0.72044130631555
H         1.52778284766021   -2.45384439193309   -0.21080937643257
H         2.89864924804393   -3.27129475977423   -0.75781265181911
H         6.28882560897414    2.08885420490658    1.44168127784423
H         5.72176423565024   -0.37677342350647    2.67598731339497
H         7.19093180942795    0.38582996082057    3.37594244042207
H         7.99233484698857   -1.82248877586561    2.10434402362466
H         7.72008611459776   -1.01732357672721   -0.42264059219314
H         5.71907609595941   -2.69345546162886    0.84201691409972
H         6.20096420795863   -2.55029546913778   -0.88294676176808
H         8.65993107361531    1.77780871393425    0.15146123338650
H         8.71458529283984    2.00087180600576    1.87737735820308
