30
 energy: -45.974138192052 gnorm: 0.130196182219 xtb: 6.4.1 (79825abcba525fcdf90b791dcacef51065a7a4e7)
C         1.09979312335717    0.22000149319974   -0.11514775006880
C         2.56650055393940   -0.01127392881314   -0.22941365377770
C         3.20477353435409   -1.22671622277128   -0.04618178247460
N         2.65378591996056   -2.44121044503218    0.13845112985422
C         4.60705655494410   -1.13905317993914   -0.10956608800064
C         5.05813899584024    0.15171078759068   -0.04879368088904
S         3.77617126113464    1.22959556228353   -0.19179437492469
N         6.39548617976615    0.38262695761160    0.13835827583702
C         6.74581125999843    1.05111871139983    1.42663585042484
C         6.70365248467542   -0.05551327759983    2.50056044177667
C         7.65864735493307   -0.89555508873029    1.65638230391039
C         6.97997245540917   -1.02600472632332    0.28251635097565
C         5.78548223210922   -2.01304105485959    0.08924255567986
C         8.86071201709806    0.00613889935297    1.49621710729406
O         9.98752516029138   -0.45014098733616    1.37080785307398
C         8.24563243196511    1.38493153255066    1.43153798680784
H         0.64750444275992   -0.67673842304304    0.31883017813028
H         0.62881947591902    0.37046450050854   -1.09165644480073
H         1.00747822257333    1.03906281923368    0.60634228445400
H         1.64836673726541   -2.46742606706682    0.00074747807025
H         3.16094040488901   -3.15054217429114   -0.38199656844052
H         6.17553563017245    1.95439771459543    1.65702330089338
H         5.70736066540081   -0.50817889601673    2.46890075157929
H         6.95785272171486    0.31303339270838    3.50072752567619
H         7.88300257744473   -1.86280184358054    2.10170069450692
H         7.67712133333379   -1.18740937960406   -0.54936347042588
H         5.60699668525490   -2.54999167627412    1.02672864541923
H         5.91489711265915   -2.70455065999640   -0.75041680880829
H         8.53882308532253    1.77696669943238    0.45600144866903
H         8.59827420754572    1.99085879494283    2.27033278615158
