30
 energy: -45.975504912163 gnorm: 0.124549120374 xtb: 6.4.1 (79825abcba525fcdf90b791dcacef51065a7a4e7)
C         1.19330936410852    0.31866969080644   -0.32047731209782
C         2.61970654485926   -0.06731793355547   -0.13559807373768
C         3.17170477263830   -1.33394978523988   -0.03963981625822
N         2.52275870407430   -2.51348587086872   -0.05501864180582
C         4.56906669741906   -1.17862076101031   -0.00286219103601
C         5.05405400812674    0.10116692743256    0.01021649935965
S         3.79742571618434    1.20418000509399   -0.16291218406197
N         6.38478688491066    0.29519541050026    0.27165210663456
C         6.74567521453891    1.08700845616997    1.48493678441656
C         6.82396390349333    0.04505274498304    2.61980458509270
C         7.65976577007229   -0.88512616578077    1.74429067380209
C         6.97805639664238   -1.11260921137295    0.38464065408141
C         5.74039783797964   -2.05273239932844    0.23373654424310
C         8.78897138822227    0.04495664522647    1.36547010665092
O         9.92677561103978   -0.35848402362901    1.17503941076222
C         8.21442324493902    1.43206685908368    1.19402013724354
H         1.03096602012364    1.15667115815080   -1.00490594482042
H         0.74402959680894    0.61217773532068    0.63347511932187
H         0.55711290668201   -0.46209865704130   -0.75127450786022
H         1.55893823280173   -2.58501367343836    0.25554724020396
H         3.04829201683279   -3.34407165245270    0.20025568860234
H         5.98329648577059    1.86046802133055    1.60636413225868
H         5.87883739521018   -0.33970942106374    3.01628894434801
H         7.41965322808386    0.43635349392367    3.45216061194201
H         7.98230492951307   -1.75948621090065    2.30613853684732
H         7.68650999428418   -1.30665557831029   -0.43054740117724
H         5.68224858937181   -2.62937811401020    1.16279607816284
H         5.96268389045214   -2.77692698965024   -0.55752365324307
H         8.42402297366876    1.72759782919395    0.16443125478107
H         8.63408496430146    2.28824673751630    1.72873580043325
