30
 energy: -45.973386610970 gnorm: 0.126110861180 xtb: 6.4.1 (79825abcba525fcdf90b791dcacef51065a7a4e7)
C         1.07844937239904   -0.32217963322582    0.24225971176120
C         2.56208054988876   -0.23744950044152    0.14512555088339
C         3.43076181880960   -0.75105017021553   -0.80349107085829
N         2.90094732647488   -1.29040971004489   -1.91752014555285
C         4.77340255388381   -0.41347074979137   -0.55558774888961
C         4.94448496883821    0.35484234719228    0.56408455368788
S         3.46807348624216    0.69284934860981    1.29325288366493
N         6.20888555145664    0.75964247051320    0.90212839774900
C         6.63543014323505    0.34807471712536    2.27250779220006
C         6.74263480059268   -1.17900321364612    2.08207171316262
C         7.70474892012845   -1.12599419554100    0.89807482252516
C         7.05259294761399   -0.10026885335431   -0.04410588407080
C         6.10694951320817   -0.77410744850451   -1.08818557587632
C         8.77291037515605   -0.24656342731068    1.50577294933720
O         9.97284412735674   -0.27981814382442    1.27625217395463
C         8.11816939607583    0.67406404575063    2.50943360509705
H         0.70265944177035    0.53706137361637   -0.32123934945467
H         0.64046941313829   -0.25044570269836    1.24278573718909
H         0.65334440063393   -1.20208590537779   -0.25269694150176
H         1.91116658570483   -1.50066891348005   -1.99902135484197
H         3.40908824401745   -1.98010236984017   -2.46280890930650
H         6.00106483146747    0.71990664696299    3.08091814191470
H         5.79482623490512   -1.62516302538149    1.76409965237066
H         6.99257642548267   -1.84105478346001    2.91872905400871
H         8.06706187113233   -2.01021272790962    0.37740512982156
H         7.82575615474654    0.50666012301073   -0.53190494880096
H         6.14649170203799   -1.83350777194153   -1.36233992343788
H         6.24224853164098   -0.19068180078788   -2.00539344485611
H         8.41551510930734    1.72314971968802    2.55768963232501
H         8.44671654088754    0.21591017981054    3.44604056148833
