30
 energy: -45.973312040102 gnorm: 0.120130613093 xtb: 6.4.1 (79825abcba525fcdf90b791dcacef51065a7a4e7)
C         1.18155736500504    0.23110825286179   -0.40337715949015
C         2.61721198549066   -0.05838344221148   -0.13343999043948
C         3.20044950814917   -1.30720482947916    0.00274159562175
N         2.61257426880521   -2.50448745522348   -0.18053387650142
C         4.57302929029769   -1.15511787062718    0.26918921489243
C         4.92509342926387    0.16715070957625    0.29913747239204
S         3.70026952646812    1.28553713030762    0.02574350706054
N         6.27454975228939    0.40280430921300    0.28238611854164
C         6.80167188834049    1.09727343553907    1.49445990735704
C         6.83586962935029   -0.02907772039540    2.54797276079272
C         7.66031410735453   -0.95646432611248    1.65883410090065
C         6.92373522525201   -0.98445693537711    0.30909622415731
C         5.76596652464778   -2.03193820489698    0.28158298099567
C         8.82217535990304   -0.05597169089205    1.30832614567246
O        10.00305189431011   -0.28903391531948    1.09657326721709
C         8.29872939540289    1.36112220950810    1.27058222323507
H         0.66104538759702    0.68908508533829    0.44300861444249
H         0.64305475308336   -0.67497453073567   -0.69842537900637
H         0.94516039297951    1.02088979614706   -1.12469051735113
H         1.76693739589434   -2.61025241695627   -0.73210376889972
H         3.24818732690173   -3.29464040345655   -0.23417476755926
H         6.19259075419480    1.99601894334554    1.61888782455485
H         5.86380656080283   -0.51330632390931    2.68625485023785
H         7.35390618649936    0.09945681392590    3.50499710786260
H         7.82322630952224   -1.92676094367216    2.12380087840103
H         7.67078965530975   -1.16712765143540   -0.47361262430186
H         5.81667290946195   -2.65834277431375    1.17829888258283
H         5.73794733112103   -2.56859104571121   -0.67297463167505
H         8.40538824618710    1.63233514975547    0.21873085688553
H         8.86925602035399    1.87799906409010    2.04673843810177
