30
 energy: -45.977402056218 gnorm: 0.120008914819 xtb: 6.4.1 (79825abcba525fcdf90b791dcacef51065a7a4e7)
C         1.12167406417592    0.28955627868411   -0.23640144059057
C         2.55530618956276   -0.08495052596181   -0.08734008784336
C         3.20476955237180   -1.30482424488410   -0.17883726374211
N         2.62603916071587   -2.49852132393023   -0.40868785243185
C         4.59699771499686   -1.19816399909782   -0.01024196837611
C         5.00484839758345    0.09200377656539    0.19558606520912
S         3.72618109107841    1.17913700019443    0.10136658180013
N         6.35752409106759    0.30746367069274    0.22187483444563
C         6.81635142502854    1.15566947053289    1.36173990709564
C         6.71702484435642    0.04683656849607    2.42961142037550
C         7.65625419992270   -0.89636243783770    1.68225205312311
C         7.00962392141834   -1.07656292159042    0.29858972273009
C         5.78606614595345   -2.04484132235215    0.23738784449494
C         8.83235440876239    0.02764341764037    1.46622922261720
O         9.99087523472081   -0.35763697216400    1.41131847894232
C         8.32067145652409    1.42475064857199    1.20194273497992
H         0.41008533523548   -0.32513259129570    0.32292266206492
H         0.81601007434395    0.44316992843370   -1.27611144711309
H         1.01340116132688    1.26956998670615    0.24086313538402
H         1.63834298321651   -2.63879850310506   -0.22081591390383
H         3.11598695618703   -3.34899602783099   -0.14817504814101
H         6.19787664221680    2.04283662046239    1.51867624828114
H         5.67665838433930   -0.29387583316323    2.42195805772052
H         7.04248548334865    0.24132845542003    3.45772954621057
H         7.84942374171908   -1.80802185451374    2.24418857363724
H         7.73962979086723   -1.26101461942338   -0.49963396686558
H         5.60448072403918   -2.61732811578823    1.15299629541382
H         5.91807198383536   -2.70830124493708   -0.62421355596049
H         8.73573015831260    1.66864478373268    0.22236844339448
H         8.69462036233904    2.21943948906462    1.85287487089925
