30
 energy: -45.974805608536 gnorm: 0.113440929497 xtb: 6.4.1 (79825abcba525fcdf90b791dcacef51065a7a4e7)
C         1.12430102062329    0.26286925971531   -0.24355351270454
C         2.58584490312813   -0.02140666182802   -0.27274905638159
C         3.31563880565019   -1.18187425684926   -0.47018792380399
N         2.73486917161892   -2.38723938942858   -0.62010260783258
C         4.68315320897609   -0.98106081059517   -0.21003725423902
C         4.95023801083457    0.30770308132214    0.16545392386015
S         3.57783348166935    1.26342723976585    0.33522793225463
N         6.24688208460066    0.50252360045217    0.56244856830018
C         6.76880096370453    0.88556377607825    1.90786631771165
C         6.84990570113969   -0.48703176501386    2.60724408118554
C         7.78339191834690   -1.08074919189024    1.55537656462744
C         6.93946923846233   -0.83702338497806    0.29303088229813
C         5.85256956642244   -1.88350201249631   -0.10937929058335
C         8.86380875603361   -0.03481514920369    1.40575764457444
O         9.92207304629651   -0.26532786938422    0.83957105782165
C         8.22472711225885    1.31044426665069    1.66154498644423
H         0.59869380750076   -0.45914670805489   -0.87559336247496
H         0.87598483803879    1.29081160309678   -0.52586209863588
H         0.83896305499905    0.02161916773610    0.78616101081614
H         1.78960874017204   -2.54379639551422   -0.28470744720047
H         3.33507865891943   -3.16920305062970   -0.86403783230001
H         6.17672481947079    1.68819978408799    2.35443871979846
H         5.84666029761819   -0.92521304130266    2.60593360645792
H         7.34735535328336   -0.59059272636450    3.57811872585361
H         7.99940085047656   -2.14117802802747    1.66957307499703
H         7.60223204961180   -0.62460260058369   -0.55532925448663
H         5.66134984957332   -2.64820928539815    0.65069375861167
H         6.05875348229653   -2.36641473625839   -1.07075595236905
H         8.24492408984844    1.96618048787537    0.78923428555937
H         8.58722179129841    1.78281962276111    2.57835462542352
