30
 energy: -45.973576728799 gnorm: 0.125385014161 xtb: 6.4.1 (79825abcba525fcdf90b791dcacef51065a7a4e7)
C         1.12632181747132    0.26604647064851   -0.52452859406982
C         2.55428797777306   -0.08742636519685   -0.29269826350523
C         3.21925553860799   -1.30188199503278   -0.25831881269574
N         2.51365671373741   -2.44767116043590   -0.21392990349029
C         4.56065490028197   -1.11023304248723    0.11853460187527
C         5.01885119902219    0.17784639225434    0.18293806989830
S         3.69677928034645    1.19158694290540   -0.04107533419019
N         6.35530856066981    0.38336963838780    0.40313696255906
C         6.78276850335275    1.06654118374010    1.66004692032784
C         6.94923345913163   -0.11825218689931    2.63384352999092
C         7.80620502208431   -0.95297747813091    1.68560537254749
C         6.94853305335349   -1.02895694683315    0.41134076253572
C         5.71665997924355   -1.98858412992561    0.40873865126613
C         8.88437345021490    0.01994670050637    1.26771092363945
O        10.02934616516454   -0.27750738869473    0.96081481607051
C         8.23842426218828    1.38596016135880    1.28593944502144
H         0.41609698302041   -0.54385941516549   -0.33301484426946
H         0.94270293491461    0.53838557374872   -1.56862631120891
H         0.85813188976461    1.10299426828821    0.12932453488844
H         1.54084728962524   -2.39546027954759    0.07143502066116
H         2.93970623726029   -3.31877223053730    0.08754600154473
H         6.17656659652781    1.96194364517875    1.81809536208253
H         6.00254898883030   -0.66207765327976    2.71476486711966
H         7.31652382009855    0.16047434773896    3.62791994242647
H         8.13265323811645   -1.96011303241062    1.93723914549002
H         7.63469052162993   -1.15419523045272   -0.43576924343232
H         5.48015552213111   -2.45092716049718    1.37277070118718
H         5.79124086822872   -2.89811360380415   -0.19719486462546
H         8.37178213517398    1.97699189539515    0.37807324591814
H         8.78088104853136    1.97053641529120    2.03366400731539
