30
 energy: -45.975624172785 gnorm: 0.125065902075 xtb: 6.4.1 (79825abcba525fcdf90b791dcacef51065a7a4e7)
C         1.14722194354928    0.13489630265506   -0.36759926202012
C         2.61770483219677   -0.06893000508098   -0.24965601925143
C         3.20849610421883   -1.31103715424432   -0.08716977191593
N         2.72444602850875   -2.49116855478737   -0.51805059108766
C         4.57580401709557   -1.09845608549742    0.16458091298746
C         4.92911962116901    0.21955372162131    0.27068704854063
S         3.65644447744975    1.29061272372603    0.02808314134619
N         6.27034955881055    0.48693929744299    0.35101656351171
C         6.86533335630487    1.12816668805657    1.56101231209906
C         6.84384785565864   -0.04772175097740    2.55928607229629
C         7.69788290785184   -0.97022782844436    1.69330175441329
C         6.88063995598131   -0.91753521690605    0.39158680083857
C         5.73614035355179   -1.97919081318607    0.42914222619859
C         8.87664266181277   -0.08823007718445    1.35231818684434
O        10.00335478846969   -0.49483044867666    1.10978448977373
C         8.35075408394245    1.32219963365027    1.21925939834084
H         0.60758528059328    0.32452160605752    0.56507372025019
H         0.58404912123647   -0.72220458270116   -0.75001130439509
H         0.91138003527484    0.92942457543312   -1.08386373028699
H         1.72018945762068   -2.50984988484801   -0.66514592149057
H         3.11294219159806   -3.25549240814190    0.02610265876785
H         6.23009232943953    1.99460684015324    1.76090209836451
H         5.82882275463412   -0.35948664118501    2.82580546164914
H         7.24369873853944    0.11881192077570    3.56584675644373
H         8.08642571878656   -1.95549250455662    1.94329779176460
H         7.43275131491714   -0.96662882923488   -0.55543744306593
H         5.79813557994066   -2.48985641018227    1.39580166970838
H         5.89449687575772   -2.65454594573720   -0.41866685902350
H         8.39317164281348    1.65139079459868    0.17947201736310
H         8.75561177136646    2.10134140753526    1.87049601632632
