30
 energy: -45.972386809463 gnorm: 0.129881754611 xtb: 6.4.1 (79825abcba525fcdf90b791dcacef51065a7a4e7)
C         1.08122243253738   -0.01954205902247   -0.58398825283101
C         2.54003104312462   -0.10007794175876   -0.29560120133475
C         3.19159545321571   -1.30896227354830   -0.11579923295399
N         2.56171246008578   -2.47118798298699   -0.37104753722625
C         4.54195497208624   -0.98878011358011    0.11248262831489
C         4.90947618580102    0.32375249026661    0.23668655531222
S         3.52174291473968    1.26561268232208    0.12345300929109
N         6.24959860622045    0.51548534150171    0.44682001772976
C         6.96832484097427    1.14673873659213    1.59321426738235
C         7.01855935196774    0.01995460197413    2.64562092132163
C         7.73975038541816   -0.95561933870711    1.71908913329768
C         6.87431358868748   -0.88321792947603    0.44987616160650
C         5.67531355232926   -1.88356444756922    0.43947816857931
C         8.92154669946216   -0.14353957288535    1.24206889075278
O        10.05592277525296   -0.52089974406266    0.98826405687120
C         8.44995620066259    1.29184454434309    1.21290990964112
H         0.45870340343880   -0.64276459001909    0.06494017631772
H         0.82882804097190   -0.27431376369416   -1.61811250551045
H         0.73363534035545    0.99203666261791   -0.34771919675643
H         1.56638347932566   -2.39947495691333   -0.55731280959204
H         3.07402094119326   -3.33270207209995   -0.53400914530292
H         6.42901176915377    2.08518012771347    1.74379580387016
H         6.03301017144181   -0.25488604072947    3.03505810962123
H         7.73008444351634    0.18101338656443    3.46328265878731
H         7.94005169607087   -1.98084203461103    2.02406098011703
H         7.53932001226690   -1.03127330385688   -0.41032039885524
H         5.62714498635521   -2.32906041462144    1.43861097595892
H         5.88100915256531   -2.68612325602716   -0.27714605274191
H         8.75126008360370    1.76515600409304    0.27668552194907
H         8.97106196719065    1.72237938726346    2.07207771231516
