30
 energy: -45.978707107471 gnorm: 0.109754783264 xtb: 6.4.1 (79825abcba525fcdf90b791dcacef51065a7a4e7)
C         1.12061127264717    0.25377368668717   -0.24902746564773
C         2.59405614132759    0.03821114448908   -0.26541972010417
C         3.28972698013109   -1.13747356859076   -0.49361661232725
N         2.73320338478617   -2.20059011830541   -1.10413899069597
C         4.62942495128425   -1.05004974372502   -0.07449075962661
C         4.90342128818025    0.14792686122919    0.52801927022312
S         3.54087225408579    1.11589711291221    0.70751795304374
N         6.20757270151933    0.54202355286104    0.67197241650729
C         6.74509674244925    0.75294265544322    2.04887075522448
C         6.85887806412450   -0.70246816601184    2.54742757302116
C         7.75005888621019   -1.09789303423416    1.37279652848349
C         6.98013638855238   -0.65833769347315    0.11616021230347
C         5.92427951027252   -1.64079811285754   -0.48245497710737
C         8.84286425489194   -0.05421041443565    1.38573490978515
O         9.98143981615007   -0.13989262005678    0.94992425761066
C         8.18543869088658    1.23583740961537    1.81833593433320
H         0.73066045080920    0.39996557410294    0.76270899259441
H         0.68025904830243   -0.59425013835706   -0.78285330937942
H         0.85832719689009    1.16703669011792   -0.79408628613179
H         1.74691087284577   -2.40595792064895   -0.97936543803668
H         3.29028977049716   -3.03832733890728   -0.96603000660721
H         6.12977858254216    1.45452493690125    2.61752837881129
H         5.91036874669579   -1.24879729339812    2.56641301993456
H         7.30320307241070   -0.79362269045665    3.54494686789951
H         8.03973333648910   -2.14055297350933    1.48750914119916
H         7.67551863356878   -0.31707942543559   -0.66106458584503
H         6.14178627067772   -2.63464114769768   -0.07746106089939
H         6.01203079846595   -1.74507005324260   -1.56937202413807
H         8.40521571289940    1.88320491453951    0.96749091767059
H         8.59506560632387    1.69927699892484    2.71972947799536
