30
 energy: -45.976599683030 gnorm: 0.114901720878 xtb: 6.4.1 (79825abcba525fcdf90b791dcacef51065a7a4e7)
C         0.99974035832502    0.05107212620652   -0.04193810852520
C         2.48713970861342    0.04837686087063    0.03162544707875
C         3.34691648304504   -0.59806747422779   -0.84081932837738
N         2.97569015038390   -1.41081119030547   -1.84794967151608
C         4.69281669722783   -0.51853690969607   -0.44041012048886
C         4.83895111353710    0.23506335452217    0.69271460015803
S         3.37635608724696    0.74277306811970    1.34752196697813
N         6.12891583280310    0.49220035392743    1.07575140929627
C         6.65231323101630   -0.00020059026479    2.38451589054598
C         6.97812980323236   -1.47133291946701    2.05385144080855
C         7.95274778330552   -1.07968352359424    0.94612732575851
C         6.99539230484947   -0.26238369560013    0.06260264955795
C         6.00352617073679   -1.10637278186312   -0.79895776613244
C         8.89683471889243    0.00215938948511    1.41727502435886
O        10.01504727831115    0.20323360614521    0.96694569528465
C         8.03850860506912    0.65645488312977    2.47498438732929
H         0.61845700867552    1.07449322634019   -0.10733405092521
H         0.63953537859049   -0.39298684866943    0.89138312057360
H         0.65477139639914   -0.54785719537864   -0.89176835655083
H         2.06678388756429   -1.56152403595658   -2.27420351398761
H         3.67202685051365   -1.37065724816363   -2.58600511569261
H         6.04057786601130    0.26230264449861    3.25116317896740
H         6.16768582009418   -1.98246606225802    1.52429563931106
H         7.34343527796532   -2.08760540345505    2.88303099835207
H         8.43106138128214   -1.78472458945972    0.26911682905520
H         7.47748513207676    0.44476128531097   -0.62414660287795
H         6.05436876530459   -2.16723655359465   -0.53243136921139
H         6.25781059921466   -1.02526598083425   -1.86137138901109
H         7.94935953891140    1.74216591188845    2.40710306401299
H         8.57924930201353    0.50289612606836    3.41258770943571
