30
 energy: -45.970621577635 gnorm: 0.134604345034 xtb: 6.4.1 (79825abcba525fcdf90b791dcacef51065a7a4e7)
C         1.21793148529938    0.25953053442750   -0.55850711043169
C         2.64391876158818   -0.08068957662001   -0.29661731738098
C         3.14790295617376   -1.35566738251456   -0.09989971609172
N         2.45883186826268   -2.51020054280969   -0.02984894165463
C         4.50729462197045   -1.17143741049427    0.21028357252270
C         4.93371513806050    0.12627717178150    0.29597301224259
S         3.71083437584836    1.24718209427852    0.02419948765705
N         6.28728513338563    0.33743394355731    0.30630252789083
C         6.81117831246875    0.98985134189485    1.54289278588398
C         6.88615540786543   -0.18526360465342    2.53949152406581
C         7.81730520410362   -0.91509078161827    1.57479751939681
C         6.90717605503460   -1.06291081727445    0.34396911833404
C         5.68846099269632   -2.03469002569231    0.43767682835337
C         8.90410075945909    0.10451152449206    1.32389724155337
O        10.04834439795114   -0.12567712418005    0.96147986154069
C         8.26099596718438    1.47095274026724    1.37709534991605
H         0.52791282707215   -0.12383813590992    0.19908584718489
H         0.96962767427883    0.10822667272582   -1.61372125070770
H         1.03149761619385    1.33832665880312   -0.52145709415053
H         1.57089102891454   -2.47160934120184   -0.52034774242559
H         2.95907024389891   -3.39357499269397   -0.05503111026486
H         6.19541645494549    1.87452577801195    1.72287640146453
H         5.95728834042804   -0.73702938220191    2.71631455799918
H         7.29851878566995    0.16212065679963    3.49346176607553
H         8.17066024384201   -1.89681022935876    1.88395308031498
H         7.46425941457845   -1.19434251602869   -0.59223379598532
H         5.60212596324388   -2.58588395801200    1.37990012820440
H         5.92320576554337   -2.78063671113787   -0.32940858382130
H         8.60451644708497    1.89800264992130    0.43319603144224
H         8.58956727514706    2.00563517037738    2.27221343040997
