30
 energy: -45.974688655892 gnorm: 0.119440796847 xtb: 6.4.1 (79825abcba525fcdf90b791dcacef51065a7a4e7)
C         1.00526717231492    0.23579751622247    0.06607000489005
C         2.46703640654802   -0.04870281223393    0.07419254743898
C         3.30306954661727   -0.78851069502586   -0.74556300877638
N         2.85375097687053   -1.41781508934097   -1.84772528235817
C         4.66580958687925   -0.61322037961265   -0.44504189366470
C         4.83369483598877    0.12694904631422    0.69390675548585
S         3.39201464891171    0.72142565021632    1.32150682867289
N         6.12926259636753    0.48691596883851    0.95615396439996
C         6.67095503659974   -0.00683589028367    2.25694079989493
C         7.04059300185451   -1.45467468417050    1.87372239298621
C         7.97518888092988   -0.96564341578335    0.77022742949535
C         7.01324325039798   -0.15715487994322   -0.11641301267269
C         5.99596057907719   -0.93486228093003   -1.01011851882850
C         8.86176074756079    0.00222626890735    1.51914864563814
O        10.07243131573786    0.09526983080529    1.38041744644593
C         8.02260109317437    0.63602574950262    2.60436046866187
H         0.53905412000870    0.44699087411638   -0.90092902999918
H         0.83603155200014    1.11891937956414    0.69015301363200
H         0.39257674683725   -0.63806758925735    0.31285248528060
H         2.12713940196889   -2.08599112655208   -1.61088422544223
H         3.61523657932254   -1.69438084422890   -2.45999486485433
H         5.94047920233822    0.07517636330243    3.06557215675306
H         6.23639891336870   -2.11709980754205    1.53761123421052
H         7.55104475762213   -1.92368494696429    2.72239605286467
H         8.48492478449899   -1.76976277386725    0.24318721696858
H         7.43860528212089    0.62790572945463   -0.75425236406031
H         6.22150675535176   -2.00603103300640   -1.03804098818395
H         6.18618925863511   -0.53048355491329   -2.01024475555221
H         8.03897877348486    1.72736534587594    2.61015060304914
H         8.49875478443502    0.29669763930027    3.52805678207041
