30
 energy: -45.979874542724 gnorm: 0.123756931095 xtb: 6.4.1 (79825abcba525fcdf90b791dcacef51065a7a4e7)
C         1.13176537706008    0.25693639728503   -0.19563687986787
C         2.60177193004398    0.01850717425358   -0.19282218613563
C         3.26428253787065   -1.15192019802363   -0.52364800555657
N         2.63190821529385   -2.18609873159662   -1.10952371871492
C         4.59745267693899   -1.01205796488883   -0.09797679702452
C         4.86428816766476    0.19564260808511    0.48811057901778
S         3.57662401305879    1.27620119976270    0.49445116741924
N         6.19659048426101    0.45614258404766    0.67238186855123
C         6.73509037485812    0.62656109593087    2.05449741757208
C         6.96841684937268   -0.84118584670758    2.46802301026008
C         7.90869416908964   -1.09207364710205    1.29190394893311
C         6.96440377839364   -0.75188755965863    0.12669432676026
C         5.85486499699676   -1.77159224914978   -0.28260800731035
C         8.89201999004553    0.05460186931677    1.33514719214323
O        10.06013542971332    0.08272582445158    0.97689862332512
C         8.14988645184587    1.21721393958515    1.95251773994795
H         0.57810176170135   -0.23107199869184    0.61204423216792
H         0.72870602230810   -0.22508140768853   -1.09186592859988
H         0.92131205810165    1.33159746988787   -0.22291957375433
H         1.68790822882764   -2.35705231472166   -0.77762586959738
H         3.14192810111940   -3.05196621856450   -0.96331773311960
H         6.05796083298374    1.31898747692123    2.56070578929935
H         6.00032447661100   -1.35208240279524    2.48498631691934
H         7.39783945674159   -1.05083103056805    3.45413848242828
H         8.31892086758896   -2.09779150665823    1.22515320957864
H         7.62440389923031   -0.39159989124950   -0.67248318341124
H         5.91094512237889   -2.65544074216998    0.36137964390033
H         5.95865515809660   -2.13487165672262   -1.31081871786382
H         8.04399294976200    2.14418926987192    1.38610166371966
H         8.61281949687389    1.53029380205690    2.89206804687081
