30
 energy: -45.979823845689 gnorm: 0.106661527796 xtb: 6.4.1 (79825abcba525fcdf90b791dcacef51065a7a4e7)
C         1.15335208371351    0.32766218584365   -0.50243776662673
C         2.53507493513255   -0.06184328174371   -0.10632775383023
C         3.19710397799570   -1.27550016001219   -0.02253754935256
N         2.57847025783313   -2.47042085096024   -0.06868654524091
C         4.58515232905450   -1.13827188950349    0.15799005202206
C         4.97361282714654    0.17397108011599    0.13909314780506
S         3.69234764175269    1.22836663867215   -0.12985959909015
N         6.31618412783550    0.40251915938783    0.28779986631677
C         6.77635985331533    1.00408802433331    1.57450931118394
C         6.83970753569199   -0.21005680645125    2.52401715700497
C         7.79398526704580   -0.95166788536107    1.59144587807610
C         6.91255003768219   -1.00780071426922    0.33246000875455
C         5.74883377694920   -2.04702869137666    0.26786870593096
C         8.88932076460711    0.06225337428278    1.35508130123856
O        10.04263158408246   -0.18694427627141    1.03664550272967
C         8.24664688749490    1.42765771669583    1.43392720129282
H         0.39430927445335   -0.04995508784211    0.18915718731308
H         0.92018852720017   -0.10464715345385   -1.48058290473042
H         1.13336963874484    1.41929836695476   -0.59110858519091
H         1.65214663009978   -2.37693566643383    0.33591491056976
H         3.07327869836955   -3.29229195250863    0.26435321749892
H         6.09226324407555    1.80363556434597    1.86936721975261
H         5.86466767758484   -0.70760837256507    2.53968880679419
H         7.17696867383708   -0.19546126097231    3.56652399080878
H         8.24994461683054   -1.90876833156810    1.83694501109705
H         7.53298620863393   -1.19731223883993   -0.55254642834733
H         5.75861043646857   -2.64012900155125    1.18829777650906
H         5.88608731383127   -2.80915222762771   -0.50691563528385
H         8.49651661285111    1.82556948933106    0.44875959647094
H         8.50764041066253    1.99086314949372    2.33379541636400
