30
 energy: -45.978138612449 gnorm: 0.113183590340 xtb: 6.4.1 (79825abcba525fcdf90b791dcacef51065a7a4e7)
C         1.02192870376232   -0.05972278654676    0.14815297261994
C         2.49884953955245    0.06058172946472   -0.00019579843682
C         3.34672358410777   -0.67181277286967   -0.81442805464629
N         2.84301657991154   -1.58029452922700   -1.67094017946248
C         4.71234286787209   -0.50548981275221   -0.52198884902068
C         4.84495621061512    0.19692022477793    0.64517613461649
S         3.40726803564318    0.78981158748884    1.28334428869309
N         6.14034526521307    0.51279849504393    0.95987237376894
C         6.65567986955048    0.09941015163454    2.29883029467181
C         6.94899711267650   -1.38245547303423    1.98615632708309
C         7.90245128871277   -1.06697926793228    0.83649460608466
C         7.03703488019806   -0.17800854180912   -0.07230123097364
C         6.04199403438190   -0.79734686261710   -1.10415205786100
C         8.85703917345032   -0.12733960296700    1.53613998728276
O        10.06905090629294   -0.11808967919057    1.37939601389085
C         8.04891557798229    0.71731711635123    2.49377597753177
H         0.37980664983977    0.80819270875411   -0.02917817900214
H         0.74786769722727   -0.48475037673189    1.11885716758431
H         0.67545139018648   -0.72146376355141   -0.65308588910315
H         2.14176840602520   -1.22495987918648   -2.31320614588435
H         3.60872431402350   -2.08077469707980   -2.11188716702368
H         5.85235856147224    0.28194022519187    3.01685764331379
H         5.97278781236056   -1.84325289160426    1.80398325549427
H         7.47242690186588   -1.94424971830878    2.76794087822482
H         8.44375368103734   -1.91736589171075    0.42656250052188
H         7.68834203449437    0.57785531792605   -0.52898588683189
H         6.23569600362941   -1.85087073534107   -1.33135292761263
H         6.15312402836575   -0.29415909175048   -2.07080286499621
H         8.09167237594549    1.79672217662840    2.33763360359437
H         8.34780470065659    0.44649699426046    3.50984808932995
