30
 energy: -45.975161493271 gnorm: 0.125206237657 xtb: 6.4.1 (79825abcba525fcdf90b791dcacef51065a7a4e7)
C         1.18883614096880    0.25815134689115   -0.29121273330552
C         2.61365197939921   -0.07760785940084   -0.01745867679367
C         3.21806702753772   -1.32153479206767    0.05733781728799
N         2.47134458621793   -2.44180721352582    0.04908092697693
C         4.61964529878226   -1.20681980432198    0.08011677351836
C         5.04756075738139    0.09285136163142    0.04875622321557
S         3.78388427536346    1.20075239117117    0.01129823227287
N         6.38944535457684    0.36884634489479    0.05301048917960
C         6.71650686268947    1.08405567018177    1.32217335142110
C         6.72327724048191   -0.02529775093630    2.39409447366187
C         7.65397645159897   -0.95478568025420    1.61938592238186
C         7.00574091562768   -1.02282509048951    0.22644453637988
C         5.83398920634849   -2.05156029520402    0.14215827349353
C         8.82748662341323   -0.02262112146504    1.42545939613341
O        10.03251182461164   -0.21611687332916    1.36142556456366
C         8.22750650622055    1.36200751246321    1.34544182969163
H         0.48300979352929   -0.44331836139652    0.16353312105413
H         0.95299878789983    0.44948431273896   -1.34278154424507
H         0.94966725777520    1.18830775856300    0.23560664903174
H         1.61185904854775   -2.22561960422314   -0.44595928104914
H         2.86571681271785   -3.27713225823103   -0.37273135569257
H         5.96918863389485    1.85071372822392    1.54116309957819
H         5.74440087378054   -0.44915724341486    2.64036683416453
H         7.04388073516830    0.23822015611035    3.40826916957749
H         7.82183548663749   -1.88380645688566    2.16063795120118
H         7.83192890162593   -1.27438543614249   -0.45047706960992
H         5.87399921558485   -2.63839274154203    1.06578163477916
H         6.01979663747569   -2.77699314646365   -0.65733179971330
H         8.43272591756503    1.94353215934433    0.44486537810300
H         8.48955394543247    1.98027214427412    2.20808936289830
