30
 energy: -45.975977995805 gnorm: 0.111470111608 xtb: 6.4.1 (79825abcba525fcdf90b791dcacef51065a7a4e7)
C         1.12771686242853    0.25416754957570   -0.30176248571889
C         2.52753581342318   -0.11440001848275    0.04815257379834
C         3.21366847711111   -1.31313567792139   -0.05441965865466
N         2.60326964791951   -2.46744222348807   -0.38253936625902
C         4.60298405502574   -1.18373804664173    0.12209810816112
C         5.00344664615095    0.12448046222188    0.08422587502997
S         3.68787127503291    1.16651743920466    0.17986283857215
N         6.35222510878924    0.34827656594203    0.17116015710385
C         6.79071431800147    1.10491102331889    1.38132522718830
C         6.76900319895743    0.08199515528132    2.53583702873265
C         7.66869705065363   -0.86215629150003    1.74245742723898
C         6.95966617179122   -1.04096116967694    0.38952416697604
C         5.79046975280711   -2.06236826799513    0.22186488537514
C         8.86661933869362   -0.01361494172026    1.38381532810801
O        10.01539780838463   -0.42187406444840    1.29861445132304
C         8.29009124012346    1.36697505403279    1.17130174866597
H         0.26991901709590   -0.11099111542885    0.27085115894354
H         0.94070748633887   -0.04017719196906   -1.33926582903292
H         1.07327068909405    1.34476438103800   -0.21478244046242
H         1.65139161570351   -2.39685078595466   -0.72817262529105
H         3.16651785115744   -3.29576382623704   -0.54944584452503
H         6.11089508573190    1.96049270973898    1.37572063100646
H         5.74338515682701   -0.19771995972009    2.79731929107019
H         7.31687438709545    0.52100665100030    3.37719585222721
H         7.96342995635402   -1.84856236609763    2.09508412358773
H         7.73865768101395   -1.20817404740479   -0.36499828919368
H         5.73010871512651   -2.61433661409688    1.16565549806733
H         5.93272734251689   -2.76526210655671   -0.60618379807716
H         8.38218912478853    1.94615083146720    0.25075991578560
H         8.77404741715164    1.96133858463018    1.95078824272915
