30
 energy: -45.976079925616 gnorm: 0.113183171290 xtb: 6.4.1 (79825abcba525fcdf90b791dcacef51065a7a4e7)
C         1.08382289119787    0.27530576217888   -0.39884191752704
C         2.53090889160667   -0.05911662004032   -0.28984880955510
C         3.22454268252564   -1.24774432851477   -0.13395577657824
N         2.69310764878945   -2.46176418502213   -0.37145416249189
C         4.59758589282964   -1.08545827010609    0.12395049853037
C         4.95226419196222    0.22551856512066    0.29360697332751
S         3.58423528035960    1.20186142835462    0.26234083029354
N         6.28766549781869    0.52648136564854    0.34810805942825
C         6.79270064458637    1.05899270122403    1.64835387183892
C         6.83944661375199   -0.24517512184705    2.47096365147024
C         7.71613338771817   -1.02172238221260    1.49182279035089
C         6.98802558986216   -0.82174188932462    0.15204996805904
C         5.84444656393407   -1.87379732479384   -0.00225083379534
C         8.89577691885319   -0.07943824027899    1.42696816624003
O        10.04597614392307   -0.43404405446757    1.21501738595049
C         8.29926238988727    1.30807045025902    1.47761852367567
H         0.34806264966493   -0.52355099229996   -0.26644427823199
H         0.85560614926639    0.55941994277479   -1.43093725069653
H         0.76123063671093    1.05647907608620    0.29803243714997
H         1.68825371693823   -2.60000665134656   -0.41237961826291
H         3.36215395609627   -3.21558695203941   -0.24755395522870
H         6.15702321937000    1.88693956938188    1.97180992975286
H         5.81864718893324   -0.59043134576937    2.66402468113171
H         7.30467623659740   -0.27882721181589    3.46253187284936
H         7.99334057057343   -2.02582922485596    1.80668092488273
H         7.61159547596831   -0.78486273213628   -0.75010998616632
H         5.90916694837217   -2.57152996386780    0.83919653259921
H         5.89722501842768   -2.45408301070227   -0.92985234043888
H         8.56759353834875    1.79127071102594    0.53642791004835
H         8.67616188777307    1.85310851953522    2.34707873257674
