30
 energy: -45.973337424868 gnorm: 0.134896976266 xtb: 6.4.1 (79825abcba525fcdf90b791dcacef51065a7a4e7)
C         1.12359820214660    0.22134898689477   -0.52637012748740
C         2.56548725170911   -0.07407478334101   -0.29952993222402
C         3.12703906428693   -1.28606762166476    0.06652910857414
N         2.53489159641272   -2.49451455520157    0.02541613320020
C         4.51059388359919   -1.16853043118383    0.29027258238568
C         4.91028765630688    0.13713904412110    0.19693235642033
S         3.69824975672204    1.23379115917122   -0.19555247627068
N         6.23173353463340    0.36934000524023    0.47389651742262
C         6.82036195402478    1.08598811681192    1.64402475250502
C         6.98554380213716   -0.10826410526621    2.60641881930668
C         7.84328687445388   -0.94627150564422    1.66177995013652
C         6.93075257492338   -0.99286641513166    0.42475349421741
C         5.73137975786378   -1.99269993999197    0.44025010537351
C         8.87442795522086    0.07395039063997    1.23803504833302
O         9.94480742184768   -0.32812606342271    0.80646929790172
C         8.28178725063548    1.45942112039392    1.35127489259924
H         0.52357996745741    0.04192081936604    0.37075195262226
H         0.77556582865406   -0.27802146114707   -1.43605531799407
H         1.05063785149976    1.29486498883989   -0.73172724881582
H         1.56698446433789   -2.54746920445844   -0.27602852390730
H         3.12352417320760   -3.22115105142965   -0.37048041600449
H         6.10560478018700    1.85969434095434    1.93506855266074
H         6.11358150622503   -0.74766288063768    2.77775722392625
H         7.52446572447179    0.06118007061529    3.54537059524817
H         8.18897856356440   -1.94639207883942    1.91568173151395
H         7.47923058368659   -0.96291947588138   -0.52517656431953
H         5.81358401379876   -2.63597364087295    1.32257354647903
H         5.93477442688907   -2.68793444436712   -0.38148050133870
H         8.51095046517109    2.01825616699871    0.44214812281690
H         8.66112244596792    1.91337306422813    2.27057529352008
