30
 energy: -45.979117610513 gnorm: 0.115255651117 xtb: 6.4.1 (79825abcba525fcdf90b791dcacef51065a7a4e7)
C         1.10728701306873    0.06248126154735    0.05068777789564
C         2.58903478451537    0.01712707733801   -0.09123551987888
C         3.29249708552297   -1.09953916564512   -0.51131118004947
N         2.86016251532488   -2.12873698923060   -1.26398078507635
C         4.66056416746654   -0.89731228858429   -0.25519248786064
C         4.89618068090482    0.24394290952652    0.46262482248828
S         3.53283268286895    1.16924639953147    0.79552380791427
N         6.21508167162286    0.60562567189125    0.54344165161881
C         6.68771758558668    0.75756540541932    1.95156011089658
C         6.71588116649182   -0.73625973882568    2.33551192347569
C         7.71124958204044   -1.14258033103222    1.25178342161836
C         7.04741947031513   -0.55717034771531   -0.00589265463269
C         5.96361375417049   -1.43796698556991   -0.70443743895009
C         8.82849213541794   -0.16949248024104    1.54932921194474
O        10.00917196074139   -0.36138675515712    1.29873310149888
C         8.18052069642190    1.11769268044445    2.00415091707700
H         0.86969331824716   -0.74750122284446    0.74676390522139
H         0.55657842546336   -0.10301543341234   -0.88063140343524
H         0.76816724828298    0.94363009234117    0.60612084376820
H         1.87350469286449   -2.36509321616386   -1.22993132405130
H         3.49020301695655   -2.91625535544709   -1.38266850001555
H         5.94420402127343    1.39083769878147    2.44182473893281
H         5.74824385199838   -1.20654825840270    2.13299619092111
H         7.08233273442483   -0.79098043426947    3.36677207279947
H         8.01873681775885   -2.18234534751565    1.15931543555388
H         7.82447410513799   -0.10151470435587   -0.63251541765721
H         6.13682117038742   -2.50881294580875   -0.55496718059558
H         6.11657594307637   -1.23761510534376   -1.77046899561374
H         8.55370242823678    1.91126342133081    1.35430113245873
H         8.44955935549949    1.37035423247426    3.03316069494399
