30
 energy: -45.978442659083 gnorm: 0.118986637242 xtb: 6.4.1 (79825abcba525fcdf90b791dcacef51065a7a4e7)
C         1.17327191430766    0.20062959660435   -0.31027243154982
C         2.63093339712037   -0.08016714433348   -0.19131072307112
C         3.19875462066989   -1.29538509441153    0.15378443119952
N         2.39948217106437   -2.36268977490073    0.34005612969126
C         4.60155376374012   -1.26623384911830    0.25076287938664
C         5.02103009823923    0.02691206413516    0.09247986890712
S         3.83304460888335    1.16745988113386   -0.24451745566915
N         6.37228862236798    0.21914583050034   -0.02580866726855
C         6.84303069164488    1.16524075005420    1.02897770389496
C         6.72503493066371    0.36904037577088    2.34498215242840
C         7.57403994658635   -0.78575931567430    1.81967240810363
C         6.89785694922428   -1.12742032553586    0.48132690533973
C         5.74630504355755   -2.18184951339326    0.45875139782379
C         8.83239274669565   -0.02542355875034    1.47024122238854
O         9.98554077182003   -0.41786286122675    1.37090492756937
C         8.36996574927466    1.33419349078546    0.99994540372183
H         1.04042203336848    1.27818447656405   -0.44544180729151
H         0.62081024749183    0.01182068102322    0.61555791151837
H         0.69415360366242   -0.25659357125786   -1.18281125013668
H         1.41070690971951   -2.35529348712503    0.11030393611859
H         2.97997146340080   -3.18868671116181    0.23058366647285
H         6.21694618767300    2.06085175589044    1.01874328900071
H         5.72955680747367    0.02641756448032    2.64521339982766
H         7.18015797170672    0.83875135188319    3.22419385528503
H         7.76265699807626   -1.72281603171687    2.33982463129000
H         7.73274705485203   -1.37319324885103   -0.18698906340511
H         5.65055036560802   -2.67834974245193    1.43002468343033
H         5.82916604773536   -2.90836239574064   -0.35689232094524
H         8.77612478599249    1.51569943519543    0.00324369481445
H         8.75849816195332    2.09440545638364    1.68273462038067
