30
 energy: -45.978132736087 gnorm: 0.118388434866 xtb: 6.4.1 (79825abcba525fcdf90b791dcacef51065a7a4e7)
C         1.09938549590485    0.06015639888706   -0.20167510868211
C         2.58509804599013   -0.01977146995098   -0.13807113905858
C         3.22278926497078   -1.24657598361134   -0.21910744338704
N         2.74139868252670   -2.48659286611019   -0.01103505640602
C         4.60436354207527   -1.01520580497248   -0.09332826989058
C         5.01793156879357    0.28552573124380    0.00815692856989
S         3.69221984848613    1.31338764766796   -0.10007612465018
N         6.35643362506003    0.44858864326804    0.25037248114477
C         6.82677767392269    1.12113441600966    1.49766020570951
C         6.78351408917207   -0.02371559648923    2.53070060376129
C         7.62804293173691   -0.98203319399931    1.69480552035090
C         6.91707979442180   -0.97471826965042    0.33113316629479
C         5.69631250126763   -1.94654400444624    0.27043454858887
C         8.82537949808248   -0.09043620086955    1.46006239488094
O         9.97004603297360   -0.50895648263116    1.36947557853547
C         8.31833401618347    1.30480216377467    1.17759081598073
H         0.73420956183482   -0.86981002137455    0.24425466681725
H         0.73252837380486    0.11913975500528   -1.23121934953433
H         0.67975739258431    0.93896342537423    0.29986435975216
H         1.76493151911579   -2.65087897533261   -0.23472958437451
H         3.30655011402584   -3.18732234016400   -0.48093402991604
H         6.26333705642533    2.01575498208703    1.77405547630076
H         5.76119883001308   -0.36989828393795    2.71382609780635
H         7.36042005490033    0.12058061260884    3.45110090520828
H         7.94919365570152   -1.92620967945730    2.13023978177908
H         7.62574664489414   -0.99830935834900   -0.50631940853797
H         5.47006276729825   -2.27528011228342    1.29013884802133
H         5.84933134199632   -2.85119714609313   -0.32802140354301
H         8.49817045260300    1.58576509937085    0.13833985796528
H         8.70384840521462    2.09965214294228    1.82154186230759
