30
 energy: -45.982512820522 gnorm: 0.102846882227 xtb: 6.4.1 (79825abcba525fcdf90b791dcacef51065a7a4e7)
C         1.15011317208341    0.22704255497841   -0.44694652615934
C         2.58935996591419   -0.01944640169339   -0.15439298722779
C         3.17495950793933   -1.27330420684786   -0.09800074517267
N         2.58117321141830   -2.47121884258981    0.06040144167621
C         4.56771833738771   -1.15884993148845    0.06081714750909
C         4.95532455692599    0.15099025981995    0.14637631856634
S         3.73475700443536    1.28037076376147   -0.09947035057797
N         6.28095704334420    0.45342947986620    0.31393123090309
C         6.74388677808996    1.04849010123692    1.60267748780014
C         6.93057242220422   -0.16346305579895    2.53864958317424
C         7.76398130477258   -0.97918056016679    1.55358270269594
C         6.87595380975474   -0.95808711047264    0.29815982196149
C         5.73720877040594   -2.02611190350440    0.32954669985211
C         8.88582099810042    0.00978079632032    1.33656767333923
O        10.04869484406878   -0.26761918948493    1.08279545460650
C         8.22893315501962    1.37016231378240    1.37446087727553
H         0.64096244699658    0.52064645447336    0.47587884505084
H         0.70855311666979   -0.69120376459008   -0.84678766526639
H         1.04440747756920    1.01137584671912   -1.20429648892626
H         1.56784718723473   -2.41939124884903    0.02875402985821
H         3.10973563473108   -3.27066137989364   -0.27536095063719
H         6.10218490868834    1.83782041015621    2.00190424453496
H         5.96761339616548   -0.66376315255331    2.68327189745690
H         7.36495117221106    0.09287460071623    3.51147264532956
H         7.97643300153330   -2.02993352023912    1.74064555003701
H         7.48229820081605   -1.07447156800510   -0.60897478348992
H         5.68703190305605   -2.54494204773605    1.29253725027988
H         5.91434407384631   -2.80688651882799   -0.41810006265290
H         8.52880337997560    1.83283900197602    0.43247786347279
H         8.53721805563375    1.91966014956631    2.26782157181431
