30
 energy: -45.977495414331 gnorm: 0.115749771998 xtb: 6.4.1 (79825abcba525fcdf90b791dcacef51065a7a4e7)
C         1.14120762746754    0.17602000254476   -0.40861573020145
C         2.60742558317945    0.00344026329837   -0.21317558240682
C         3.16409192091410   -1.25944039519239   -0.09689429889119
N         2.57588720624656   -2.46634198770878   -0.19727688308443
C         4.54832829007143   -1.13261986500777    0.11736325045429
C         4.94884471968429    0.17559386905421    0.15482934476980
S         3.75051741036235    1.30601240209384   -0.17967278713674
N         6.27225983572209    0.37871620044001    0.44493172196315
C         6.78046241529739    1.05446031036717    1.67552834517445
C         6.91512121406820   -0.13494878495106    2.64861557910224
C         7.78591390616543   -0.94968541063987    1.69559590760849
C         6.89658340725390   -1.02016368520453    0.44289943112220
C         5.69982371466485   -2.02193426814459    0.39167140272470
C         8.87751088835084    0.03147308670218    1.33586208773410
O         9.90855360388745   -0.37566666636088    0.82126047912761
C         8.25519137630565    1.40564469532747    1.42500369174029
H         0.64796465697873    0.18424511371808    0.56795382464460
H         0.69410226451836   -0.49232591450579   -1.15120246311256
H         1.05950701005735    1.19527192464130   -0.80153034379678
H         1.59751031078795   -2.64462647737071   -0.40101837234204
H         3.20607468569161   -3.26259413113759   -0.18895478385661
H         6.14215678836552    1.91119287837048    1.90526921074701
H         5.91877675347225   -0.53933267604732    2.85422995820431
H         7.36993346663551    0.00386746253814    3.63586148056783
H         8.21758202581759   -1.92194848919135    1.92489300751480
H         7.52326620545323   -1.12261614653899   -0.45201074557067
H         5.61047070184190   -2.77290505315287    1.18357554415166
H         5.88416965542471   -2.64437127647104   -0.49068359078193
H         8.46832008355449    1.99325709824780    0.53023462179713
H         8.72565801746354    1.99830008836804    2.21399134072172
