30
 energy: -45.977300874788 gnorm: 0.111096374429 xtb: 6.4.1 (79825abcba525fcdf90b791dcacef51065a7a4e7)
C         1.02435564215993    0.17668980038470   -0.13701758810689
C         2.50391087084916    0.09193923612249    0.00964313066386
C         3.33122758975719   -0.60012846386153   -0.85918114786135
N         2.81175036471800   -1.31573919085244   -1.87442377153701
C         4.68980273845496   -0.56588769585599   -0.49696408820343
C         4.87817343762860    0.11235767159722    0.67680759718920
S         3.43849252979360    0.64840697533116    1.35922688105349
N         6.16409413129860    0.40107113430081    1.05083717062691
C         6.66257472226954    0.01312691793827    2.40371720414231
C         7.12480251945500   -1.44494850120193    2.20349911020136
C         7.93279012228211   -1.13226976708720    0.94663387573770
C         7.00176901376735   -0.34611044125872    0.00840277889888
C         6.00237597808275   -1.10189120156885   -0.92348314228016
C         8.81850930107185   -0.02926303905535    1.47818075098697
O         9.84566166285128    0.40864053829885    0.98136573912345
C         8.03418970526018    0.68976002290260    2.55122502551517
H         0.70326445738153    1.22134965172795   -0.08572802979984
H         0.65263841488948   -0.32222950066830    0.76349912446705
H         0.68628595883453   -0.38694541472750   -1.01334834876718
H         1.84061445926009   -1.56286602125970   -2.03672190129578
H         3.37432983020871   -1.43897668431572   -2.71080876334291
H         5.90138541219910    0.18055905443259    3.16972173581229
H         6.39767774623445   -2.25392387686815    2.07958666352784
H         7.80769625172463   -1.72787387510123    3.01244162123671
H         8.44409509299633   -1.92486359916656    0.40388875820940
H         7.56752692141290    0.32519045930567   -0.64990197368564
H         6.02896244943247   -2.18169864079013   -0.74358792897083
H         6.17556115380616   -0.92157296067762   -1.98999794254416
H         8.12255495512280    1.75023896786467    2.30853209451261
H         8.51559539452176    0.55073400414389    3.52282222201991
