30
 energy: -45.977453244857 gnorm: 0.113126377452 xtb: 6.4.1 (79825abcba525fcdf90b791dcacef51065a7a4e7)
C         1.15041604257719    0.22029434435758   -0.06373501410206
C         2.61130538477623   -0.06161656593250   -0.12779979600432
C         3.28171774937131   -1.27315938567453   -0.15906592644394
N         2.72395309429866   -2.46219469583570    0.13718820374188
C         4.68552014881453   -1.18700643707319   -0.16313549492520
C         5.02874326020445    0.13134901532172   -0.03131337845520
S         3.75893548969414    1.23277921166087   -0.01843687928533
N         6.36175426272155    0.41719088839730    0.10367441656273
C         6.72870867365252    1.15492303349819    1.34881044692086
C         6.56953656006075    0.06805327353788    2.43190975470074
C         7.51919999244861   -0.91623264500066    1.75394016237184
C         6.98532325101347   -0.96634776353199    0.31255593985944
C         5.88016492970376   -2.03652924927824    0.04471449602259
C         8.75891953728336   -0.11609131842899    1.42754516982038
O         9.95238479561257   -0.37777008083147    1.39941023346434
C         8.25381643916461    1.29340236902260    1.22315874531521
H         0.69719242252851   -0.37458853690870    0.73485567282302
H         0.57813762069002   -0.04527909695915   -0.95815811696063
H         1.10057818837314    1.28890425439118    0.17189269637077
H         1.71085700252534   -2.44810532324602    0.07429872919132
H         3.15014637591658   -3.28758782367424   -0.27306593688296
H         6.16210763690533    2.08930527387977    1.35874622410054
H         5.57796607287700   -0.38472604122455    2.53332350012173
H         6.93082618258779    0.19119917812231    3.45908232939985
H         7.56977824035813   -1.92234429631791    2.16551178766771
H         7.83039808723493   -1.03074275733724   -0.38443320168484
H         5.81857526868084   -2.74396720320162    0.87825603637480
H         6.11331197242873   -2.64066976175329   -0.83881155994201
H         8.68280413501406    1.72662763255396    0.31783598766259
H         8.57000285002235    1.96405409918940    2.02648507521252
