30
 energy: -45.979023302409 gnorm: 0.118599304665 xtb: 6.4.1 (79825abcba525fcdf90b791dcacef51065a7a4e7)
C         1.15308299947284    0.13794840233950   -0.05629549575149
C         2.62197507631264   -0.10500786973018   -0.08952209413676
C         3.25103758729910   -1.33584653622777   -0.17660138603413
N         2.61411650661833   -2.52197392309033   -0.18690865508984
C         4.62894131313778   -1.12598035361478    0.01164725517746
C         5.02518564047722    0.18313511060526    0.06111849911153
S         3.71377039182041    1.23462249551754    0.04407801038296
N         6.36697248365435    0.43859411675716    0.16692198927435
C         6.82575093779679    1.22467404340595    1.35050496929471
C         6.68591945299684    0.13161372518105    2.43003822099859
C         7.56678694229159   -0.91012872712478    1.74508033808430
C         6.98424630933316   -0.95475520865116    0.32248437797688
C         5.82722377226404   -1.98666569091789    0.13577078948107
C         8.82466855396690   -0.10559386699773    1.51243921107666
O         9.99038859291959   -0.47182984145969    1.53682515211327
C         8.34681379039102    1.27875899696102    1.13988400908771
H         0.62716687939786   -0.26932525854229    0.81237289514841
H         0.66814605561520   -0.39884418239311   -0.87770550374014
H         0.94567927673090    1.21353371210954   -0.06189044315811
H         1.64190178770786   -2.59778971787332    0.09516899188533
H         2.81836250938830   -3.22573207570634   -0.88992431773502
H         6.29461691527976    2.17845950604261    1.39944949726402
H         5.63560883905270   -0.17715398394132    2.42603797220405
H         7.06148050763381    0.53862129496582    3.37559484775971
H         7.80733985500163   -1.85377614932636    2.23074880177782
H         7.70069189735397   -1.09319872488424   -0.49704668714681
H         5.77798119136728   -2.79857112500178    0.86887239885812
H         5.86854275790282   -2.52178013117357   -0.81916735569336
H         8.65645565337157    1.43812057833976    0.10545195712563
H         8.69953540995885    2.08167995617013    1.79256017263074
