30
 energy: -45.981534899609 gnorm: 0.107211927959 xtb: 6.4.1 (79825abcba525fcdf90b791dcacef51065a7a4e7)
C         1.10695247395061    0.11044356666301    0.20169445495887
C         2.56577923425745   -0.07325930917129   -0.03463885246034
C         3.29052443417713   -1.20935925300130   -0.35446316162522
N         2.72259825548250   -2.31038194396002   -0.88160808192207
C         4.67213357569818   -0.95035880313305   -0.30782634995326
C         4.96829951767344    0.29351975980654    0.18032538517110
S         3.60196767568713    1.25051392264716    0.38775131930540
N         6.28453602630052    0.56189857608645    0.44928612121560
C         6.69427094617314    0.87946428733428    1.84947800483188
C         6.74283404919542   -0.52350143186028    2.48905174106893
C         7.69642256668450   -1.04336099140900    1.41632756739977
C         7.02676942191213   -0.72318349963158    0.06941427296038
C         5.94414993817771   -1.67388069213773   -0.53267564405494
C         8.86171237396288   -0.08648952155181    1.51712957204975
O        10.04238462014871   -0.39100494928333    1.43400270293256
C         8.18697914638712    1.23842759739713    1.78713903180295
H         0.54936943315670   -0.03782766322775   -0.72790823705438
H         0.87223706583010    1.10847183799546    0.58493428817093
H         0.75268361806054   -0.71428161804805    0.82959039765171
H         1.75430098684606   -2.25721650881776   -1.18175992018934
H         3.22990156621887   -3.04257852799556   -1.36920884694100
H         6.07623017914675    1.64836024099173    2.31961654922622
H         5.78552533565237   -1.04022237396958    2.61179286414487
H         7.22539520133834   -0.67242405289646    3.46154101658643
H         7.87714798044260   -2.10986775686233    1.53512008893149
H         7.73814005164272   -0.52295571808659   -0.74172857491678
H         5.94127084753477   -2.70719466883175   -0.17031233029216
H         6.03691896746332   -1.75863048353317   -1.62087276055667
H         8.41598476824126    2.02148086986422    1.06208188470807
H         8.49983088349054    1.55734582251845    2.78488435964385
