30
 energy: -45.973339795647 gnorm: 0.123162706764 xtb: 6.4.1 (79825abcba525fcdf90b791dcacef51065a7a4e7)
C         1.18088505130413    0.17493236395003   -0.23691489545443
C         2.62744422181330   -0.03993854373047    0.04428384448166
C         3.20390389087151   -1.29234853086131    0.17630551354833
N         2.40104668469889   -2.34945047280608    0.40131364146861
C         4.60418665038611   -1.18652668259542    0.25447180752733
C         5.05325117402102    0.06275962853644   -0.07849220658516
S         3.81591165904673    1.18863973960416   -0.24314623986769
N         6.40619997248231    0.27766979155466   -0.06475249955236
C         6.85551985063374    1.16042189046836    1.05244415503958
C         6.64151554246209    0.28884597211369    2.30714863044938
C         7.56559882053708   -0.77520413176309    1.72047185183378
C         6.91979446466333   -1.10063244911966    0.36321081705805
C         5.73616843756277   -2.11120713549365    0.49037442689474
C         8.85454565694394   -0.02985502850368    1.46214037349195
O         9.98887758392160   -0.46850490942101    1.58257307210129
C         8.38094532880297    1.30706565557410    0.94067971284699
H         1.19586747702953    1.11585856635850   -0.79501683083716
H         0.56507485643819    0.35811674026663    0.64922606846046
H         0.81765077252819   -0.61335760862322   -0.90518964469928
H         1.61831539959994   -2.52241908245510   -0.22152733634778
H         2.96264808441690   -3.19544738111714    0.39053986894319
H         6.30001349249004    2.10144495057370    1.04275338992203
H         5.67626681049369   -0.22674592626127    2.33822540433950
H         6.95596356817856    0.59029342011738    3.31264874390626
H         7.77059328903210   -1.67677331180504    2.29437105649683
H         7.73996894806777   -1.45088203854810   -0.27610999070074
H         5.71551080662058   -2.62267182567603    1.45837771533646
H         5.64946747428409   -2.82389215415564   -0.33698558580176
H         8.62203621453184    1.64397447444226   -0.06911803943392
H         8.76406736579716    2.07288292429173    1.62025472585297
