30
 energy: -45.979884234649 gnorm: 0.111734603159 xtb: 6.4.1 (79825abcba525fcdf90b791dcacef51065a7a4e7)
C         1.13807763433903    0.17871561423471   -0.65739613083501
C         2.49571221890225   -0.07256507146976   -0.09930828455213
C         3.18537717247049   -1.26644804865731    0.03211454461071
N         2.54211051427377   -2.44486803165752   -0.06891623238677
C         4.55861482386369   -1.12664955787848    0.30188254790017
C         4.89483632829732    0.20007300537340    0.30026939566054
S         3.60634632050080    1.24995241053565    0.04872856631059
N         6.23363123407988    0.47917147363429    0.38137339903963
C         6.89108708959411    1.11162916058522    1.56332816575906
C         6.91682384238540   -0.04157082356722    2.58762947125743
C         7.76355177889065   -0.93989767318737    1.68964125024022
C         6.89859493562591   -0.90035107153623    0.41865340429647
C         5.76982861248078   -1.97696227683832    0.34656137415473
C         8.92656470830618   -0.08340518395158    1.24524736320953
O        10.05083030461851   -0.51413345771815    1.03518381001143
C         8.35973194655339    1.31480769148702    1.15994330538277
H         0.50524696485694   -0.69783699216821   -0.48939243488467
H         1.12613344585647    0.36540882555270   -1.73583366024187
H         0.66338678134838    1.05589921742963   -0.20446248402940
H         1.83857107948740   -2.56266778506924   -0.79118541272519
H         3.14851889116367   -3.25931270384565   -0.08202114572902
H         6.36922820670377    2.00085627679829    1.92546635869007
H         5.90688675892035   -0.46247154126599    2.62471801282926
H         7.35394965055055    0.19980170434887    3.56304678395026
H         8.06046051175217   -1.88957812407904    2.13027972330472
H         7.56570100767619   -0.93694070998131   -0.45181930792822
H         5.68899882563950   -2.64482905756084    1.21054849120918
H         5.97025307012658   -2.59619755048289   -0.53453981557870
H         8.51290584487788    1.67523206426882    0.14114209970597
H         8.66004302513793    2.00553416739875    1.95227592105477
