30
 energy: -45.977385323361 gnorm: 0.126099034250 xtb: 6.4.1 (79825abcba525fcdf90b791dcacef51065a7a4e7)
C         1.09999956449555    0.23677422462802   -0.31508111796814
C         2.53575394290526   -0.04487687359951   -0.03748838154655
C         3.19854959255295   -1.25747213249391    0.05514502797615
N         2.59271282107084   -2.45925846265981    0.09180968297544
C         4.59088608787038   -1.14705264172041    0.22039231115004
C         5.00932560737586    0.15579211346461    0.19311292505210
S         3.73291432030847    1.20646370033942   -0.11117226975372
N         6.36118040351519    0.36750208415386    0.12593334763284
C         6.78139447521163    1.02425718911078    1.39926003140216
C         6.71592662465941   -0.12332730497179    2.42808923617962
C         7.71638747783152   -0.93005294689071    1.60432107034477
C         7.02203024793732   -1.01023226282114    0.23444381749537
C         5.80679151877403   -1.98990535508368    0.27731368450747
C         8.85470817900775    0.01875234359261    1.30824863843360
O        10.03429892052575   -0.30050598299104    1.29192457594181
C         8.26658774990644    1.41068202109286    1.32313279296865
H         0.39905389780261   -0.10237656081940    0.45348657177541
H         0.76803113948020   -0.14238420355419   -1.28670881231711
H         1.05396980275973    1.33121584572758   -0.31189293957711
H         1.63946240299701   -2.45331184127363   -0.25718252744758
H         3.20091733475929   -3.18426749805292   -0.27652732069613
H         6.05732245565090    1.82256926175936    1.57987887379256
H         5.74998197746204   -0.59909241638232    2.62583751969076
H         6.99516879948938    0.15971531108867    3.44921081914840
H         8.00728046970678   -1.94009501948327    1.88611229491219
H         7.77221720686160   -1.24173466773487   -0.53218400623244
H         5.81656557786156   -2.64506965788443    1.15464910296516
H         5.85685439872500   -2.60800054421031   -0.62568888040290
H         8.43976673856756    1.97213417492525    0.40329346818287
H         8.64331032301963    1.98140938039931    2.17602854625366
