30
 energy: -45.964254540897 gnorm: 0.141100376352 xtb: 6.4.1 (79825abcba525fcdf90b791dcacef51065a7a4e7)
C         1.17101133231710    0.27249534546462   -0.36917089054184
C         2.59062489647835   -0.10290386074883   -0.12108123793901
C         3.20197629489960   -1.34566968154190   -0.11408991068606
N         2.62459885212371   -2.56086998812446   -0.06313508358324
C         4.59614703196876   -1.16258388096344   -0.08463498407133
C         4.99577524598299    0.10386748579151    0.24648203387888
S         3.71070887383062    1.18543252240033    0.17904668693398
N         6.33273171343553    0.38056272268234    0.13320033236370
C         6.77550081780644    1.10277787268600    1.36268346611159
C         6.80255514739101    0.08217294576313    2.51912602419001
C         7.60792186400195   -0.87349020832782    1.64253343869500
C         6.94406657138003   -1.01804708055028    0.26285092529954
C         5.77346998380574   -2.03969345636971    0.10682313980175
C         8.82487577690902   -0.00922403968655    1.40645813565461
O         9.96694797011203   -0.44430598459853    1.40767448704941
C         8.28264594093478    1.39855011042189    1.31851410193025
H         0.65105790102987    0.56036136814273    0.54942910906284
H         0.61557039085814   -0.49860087173539   -0.91223673507230
H         1.28511684175289    1.21397006191697   -0.91738312518728
H         1.61466417455465   -2.61198464702525   -0.15222229052088
H         2.96362868216681   -3.35711206510749   -0.59443567848221
H         6.14098865821371    1.98929140112059    1.43814010933600
H         5.79818471213761   -0.22081727541115    2.83208423483047
H         7.40637161368790    0.54136572598631    3.30990176193062
H         7.82312130474097   -1.78917169351620    2.18973233833587
H         7.68326506999652   -1.19051678820028   -0.52957057472128
H         5.82181527625443   -2.79429576717348    0.89884039013293
H         5.92827216095599   -2.56539889969220   -0.84166600455628
H         8.68657742501308    1.76923385676063    0.37471497955102
H         8.51202463636984    2.16331857397793    2.06523720561537
