30
 energy: -45.976939534681 gnorm: 0.121017943777 xtb: 6.4.1 (79825abcba525fcdf90b791dcacef51065a7a4e7)
C         1.09379566496906   -0.25246116515595    0.24886129519293
C         2.57689263576358   -0.14856116365706    0.16281548453487
C         3.39538532802455   -0.76405765989277   -0.76965439601167
N         3.07058399397233   -1.56527014313611   -1.80175687966020
C         4.73964304501908   -0.41162143843271   -0.55318279478434
C         4.89008434973857    0.45267215513670    0.49734291694400
S         3.47550841590232    0.71674653537598    1.36623054263181
N         6.17579609151968    0.79049189274305    0.82850565022528
C         6.59781325807441    0.30070003470556    2.17434123993323
C         6.69385625335990   -1.22612563965942    1.97608673655930
C         7.72097204685420   -1.07985101807068    0.85628360473252
C         7.02806616619050   -0.08780146855724   -0.09284415690629
C         6.06194248830773   -0.85544967783255   -1.04977865172592
C         8.80924062940262   -0.29248621262721    1.54866539411139
O        10.02286150081159   -0.22632624263004    1.42070480309008
C         8.06570664032398    0.63497792029958    2.48169427697489
H         0.62965053959350    0.69980672165103    0.52235635971956
H         0.87028565067259   -1.10013687367942    0.90423423472629
H         0.66357058665589   -0.41170926880746   -0.74586369019617
H         2.08284457977628   -1.48282841335923   -2.02105460770088
H         3.52052730830995   -1.21879493471921   -2.64361727304044
H         5.84078518466389    0.70995866638792    2.84785552531610
H         5.73235362204261   -1.61695445867325    1.62784628728618
H         7.05486573431168   -1.82094956275308    2.82262985876295
H         8.04206924761993   -2.02057897048988    0.41340944115717
H         7.75381205531218    0.48898795123104   -0.67995481730805
H         6.24251945842450   -1.91219616258551   -0.82677179631365
H         6.25596543191774   -0.73859927210501   -2.12153547068763
H         8.44981289612279    1.62777851285033    2.24058592750140
H         8.12043667957111    0.38466659446560    3.54444055210759
