30
 energy: -45.977360577060 gnorm: 0.107311336704 xtb: 6.4.1 (79825abcba525fcdf90b791dcacef51065a7a4e7)
C         1.11308106585234    0.15897008965776   -0.43518878412514
C         2.57214827235453   -0.07522951524982   -0.25066470554100
C         3.20938210014296   -1.29845970229774   -0.12454080943340
N         2.49782855298573   -2.44142081771739   -0.12661934983397
C         4.57169005896765   -1.12090037243451    0.17660660842816
C         4.96354652198486    0.19037373767061    0.16082689290889
S         3.67850485073664    1.24771689660114   -0.07670082318745
N         6.30422531416552    0.39757869161742    0.35185597984874
C         6.80641685722851    1.02596539682227    1.60971201543895
C         6.93927494884162   -0.13995437752731    2.61106388071498
C         7.80561396028282   -0.92014742797897    1.62563113569892
C         6.91777575994632   -1.00590446332015    0.37282890083743
C         5.72599753621454   -2.01340044486076    0.42777315474283
C         8.94277761538711    0.02419804226166    1.31141012877053
O        10.07353823296728   -0.34592302807968    1.03209401209313
C         8.26066506681911    1.37140484263666    1.25368910813477
H         0.52688144531271   -0.12873819225881    0.44267129821716
H         0.68600872025600   -0.33690723404398   -1.31253672953288
H         0.83799426099644    1.20160618868296   -0.62798034708292
H         1.51376246197856   -2.41356191743924   -0.37431897126808
H         2.98897880852148   -3.32386945690186   -0.23282111718336
H         6.33065511481778    1.92977002464077    1.99829095397141
H         5.95986935025462   -0.45295130083383    2.98696744250310
H         7.54854493240216    0.08326676232665    3.49409333284373
H         8.26497957367244   -1.81370698656383    2.04365573671479
H         7.43597401006525   -1.03654744520246   -0.59393044719753
H         5.65521761599617   -2.50255805501477    1.40489559871296
H         5.81902428597008   -2.63456756060291   -0.46970053488857
H         8.34541055548525    1.81998556460784    0.26226719685314
H         8.60679572205430    2.08233937779387    2.00857084696527
