30
 energy: -45.976862021221 gnorm: 0.110902235020 xtb: 6.4.1 (79825abcba525fcdf90b791dcacef51065a7a4e7)
C         1.16377042029743   -0.11645446993105    0.19268287521245
C         2.64338860838688   -0.00841388100728    0.06294183481465
C         3.40783843709883   -0.80186200381569   -0.77629741361114
N         2.93915852496419   -1.81626082661312   -1.52730127152546
C         4.75379048948963   -0.54205264928208   -0.46163590011445
C         4.95212406235699    0.39601134869130    0.51506248935647
S         3.52405641493622    1.01845887787235    1.14665392568948
N         6.25128418288004    0.70556318878831    0.82035918444148
C         6.51078954866936    0.23241335000099    2.21249930789397
C         6.71783781898610   -1.28346446079247    2.01508805666492
C         7.74884285644540   -1.10830964131428    0.90303070298662
C         7.03062217145728   -0.21593526970714   -0.12310347984635
C         6.03843231257435   -1.07647618775979   -0.96775185835310
C         8.73228544582903   -0.12400433122767    1.49264760839400
O         9.92559277830220    0.06508067009062    1.30855215921958
C         7.94972803094755    0.69019850204880    2.49676564459997
H         0.67615049498110    0.69290542210498   -0.35886739682045
H         0.95830242421212    0.07529757166731    1.25052905510511
H         0.79285458111759   -1.02406959435531   -0.29577137109889
H         1.96711689004714   -1.92502961961141   -1.79900264167121
H         3.54110629062199   -2.19913058061527   -2.24999938680677
H         5.75129080356704    0.60898909891546    2.90210641846399
H         5.78613816420756   -1.80704811858576    1.77780808346208
H         7.24292651403491   -1.83377555915657    2.80389611468043
H         8.22378167554455   -2.00170556021689    0.50242260066724
H         7.76668378244604    0.38399661229309   -0.67300080053112
H         6.14685661301760   -2.14375651487529   -0.74818401058002
H         6.16371534393058   -0.97973433884595   -2.05168298887200
H         8.16085023263804    1.75943416063080    2.43772004965483
H         8.34939901582778    0.25965430264298    3.41870684247713
