30
 energy: -45.975410192007 gnorm: 0.131013060862 xtb: 6.4.1 (79825abcba525fcdf90b791dcacef51065a7a4e7)
C         1.15273455475115    0.19633525165517   -0.57300668841336
C         2.57976657001135   -0.08090255061566   -0.24975055226341
C         3.20201801781943   -1.28644696160612    0.02905419460404
N         2.66373142489043   -2.51232387015881   -0.11288318885942
C         4.58042072538979   -1.07053752037458    0.20650594957515
C         4.94739853803165    0.24800433806999    0.21036837805642
S         3.64477574743683    1.27414901803209   -0.06518020023172
N         6.30006033512187    0.40932589896601    0.35571979943250
C         6.83283134789461    1.07161275278280    1.58323728181552
C         6.81742133717136   -0.17677859550878    2.48933182381219
C         7.74157179490599   -1.01326351576511    1.60810479208571
C         6.98237745637886   -0.95962978419086    0.27173966438158
C         5.77078272759226   -1.94353466843639    0.32044029450857
C         8.87970528267776   -0.03684901990482    1.42120567140206
O         9.97507967065779   -0.34182153454712    0.97312823588937
C         8.33187852570270    1.37148463428420    1.42879314317671
H         0.44878976746139   -0.09429024933264    0.21251411265834
H         0.76775932718598   -0.42664131187790   -1.38646768962114
H         0.90132398259936    1.22701935624153   -0.84579667243744
H         1.65662955754187   -2.46457938761078   -0.23113536159123
H         3.01882099915442   -3.21476191679650    0.52876715889316
H         6.18247538084613    1.91279347753938    1.83554212050737
H         5.79469568910477   -0.44558670577645    2.77266967099846
H         7.33817933328305   -0.04778208190931    3.44481579071947
H         8.07690151908541   -2.01197505525702    1.88075704995926
H         7.63795104076170   -1.03041826741904   -0.60536028670896
H         5.81042736433846   -2.48377806737414    1.27208024964401
H         5.75457499193815   -2.64883674197333   -0.51756202091964
H         8.45095311219779    1.89857602996631    0.48046842482486
H         8.80687391500598    1.91461016672995    2.25005730300423
