30
 energy: -45.977711127899 gnorm: 0.110654176231 xtb: 6.4.1 (79825abcba525fcdf90b791dcacef51065a7a4e7)
C         1.12977242840592    0.24765555447430   -0.63363918837129
C         2.52960483329198   -0.08319079082956   -0.24791176077197
C         3.14942877129463   -1.31654152443052   -0.13419914731208
N         2.61808744351015   -2.54144120318074   -0.30731781840749
C         4.49965366577200   -1.10498086600745    0.19781724878982
C         4.87156801234601    0.20965674722118    0.27935224689613
S         3.55818121459011    1.25173581847327    0.15764600970810
N         6.21613709123221    0.42781793494529    0.42558950252412
C         6.86618098355748    1.07284791336333    1.60484659241867
C         7.06813381670681   -0.06030449145888    2.63193297541279
C         7.80224430961938   -0.95890186030116    1.64000216628577
C         6.87198014675186   -0.95652826824078    0.41536861228500
C         5.69138919521862   -1.97446422695587    0.32364205317258
C         8.94658881441104   -0.04180081719019    1.27522041955542
O        10.10765749264137   -0.36435137248340    1.07148691580013
C         8.33214290789803    1.33800259947095    1.22859240537174
H         0.60902342287267    0.55878656227485    0.27688941758726
H         0.60272255237804   -0.60296060848770   -1.07714240001226
H         0.94480956806182    1.12045885526947   -1.26919761659935
H         1.90674193511825   -2.71280137463135   -1.01098006674311
H         3.02625547154868   -3.38910344195186    0.07490016656928
H         6.40664547493133    2.00597385323796    1.93997154421576
H         6.17915925113312   -0.56394517742030    3.02509473816936
H         7.64813521535242    0.31942424196568    3.48056898200634
H         8.04320147835101   -2.00128548831481    1.83896456295587
H         7.51874793112529   -1.08655026062634   -0.46148814647530
H         5.51378505807380   -2.57676234209649    1.22071896283345
H         5.76425408381741   -2.68267134357447   -0.50888120924403
H         8.41710861331964    1.93718666566102    0.32025152501746
H         8.86415420469310    1.90958379540101    1.99366736996651
