30
 energy: -45.974326845824 gnorm: 0.113855471011 xtb: 6.4.1 (79825abcba525fcdf90b791dcacef51065a7a4e7)
C         1.07315725452824    0.14563303900623    0.12976761930379
C         2.52340619328002   -0.17234011570670    0.01380728581994
C         3.38346656052760   -1.04845948107455   -0.62726783875078
N         2.85118011562494   -2.07503681498330   -1.31682059342193
C         4.74171368935008   -0.78990803919784   -0.36955489605883
C         4.93788416890389    0.27133228458292    0.47218520729132
S         3.48297684000109    1.06152189592467    0.76299632544809
N         6.23540077772123    0.62062524128880    0.73918840490644
C         6.71539835343795    0.59750752974746    2.15281349654889
C         6.79467242139984   -0.91736579618057    2.43317072679025
C         7.70557563661307   -1.16615852010437    1.23372098374625
C         7.02905342801119   -0.48321870431573    0.03328969249355
C         6.03232903123182   -1.43600855120012   -0.69960480719615
C         8.80536347273247   -0.15825323714819    1.47508800718654
O         9.83888103320800   -0.16240405839274    0.82282203727875
C         8.19856258620968    0.98612841782403    2.25339303671492
H         0.68285529944521    0.70501511111895   -0.72568574397069
H         0.83830349138356    0.78359476438092    0.98759806514782
H         0.53424776793861   -0.80574085143223    0.19606736167909
H         1.91057620604283   -1.77948792635109   -1.55854857902254
H         3.52107934796083   -2.37104008801259   -2.02026928306144
H         6.01274857213581    1.22226912959176    2.70973526435813
H         5.79734274524720   -1.36682715148000    2.39046364846373
H         7.29051115916574   -1.07338029352258    3.39783752181437
H         8.03559161260937   -2.18543040718440    1.04297431209619
H         7.75174122712989    0.00217007525377   -0.63470142614498
H         6.11483243834160   -2.44963073903457   -0.29362884020536
H         6.22026117147673   -1.45398296330024   -1.77864142652482
H         8.42339868642243    1.88664841887011    1.67907925142443
H         8.55933036942811    1.15898390207729    3.27076630793273
