30
 energy: -45.977480155342 gnorm: 0.122412377287 xtb: 6.4.1 (79825abcba525fcdf90b791dcacef51065a7a4e7)
C         1.24038829081417    0.30121196366081   -0.68477240063316
C         2.57299606418805   -0.06760223210165   -0.13168261855008
C         3.14526872202129   -1.32291184057091   -0.00933853297258
N         2.58778572075267   -2.54015932010694   -0.15144467253153
C         4.53991762369018   -1.17234722067023    0.09256720965287
C         4.91098235761471    0.13982440482316    0.20985683597689
S         3.66525984722976    1.26122781525084    0.08196674249436
N         6.26293933475406    0.33017830548323    0.32309702827525
C         6.76024844717354    1.06212853393225    1.52567779682398
C         6.89423055198146   -0.10237091788734    2.52853151008705
C         7.79576830390281   -0.96689679803833    1.65095139442313
C         6.94884313367376   -1.03878182756926    0.36928268300022
C         5.73759622648022   -2.02085018396944    0.28666885526255
C         8.87765707892206    0.02064222661679    1.27953822358371
O        10.02136244014863   -0.22601263968307    0.92637239950066
C         8.24853762818227    1.39346465137276    1.33559815911328
H         0.45789749286955    0.33593412483165    0.07913001194307
H         0.95422524947547   -0.46386479182321   -1.41332767835051
H         1.30895480268512    1.30178867015731   -1.12531326673292
H         1.58074853094243   -2.46815867941712   -0.04557074638371
H         2.94387772362377   -3.26608943586108    0.46292242976598
H         6.09036012208360    1.87544691298685    1.81545093896638
H         5.96491835271420   -0.60626296364529    2.81309702197710
H         7.43050000442818    0.17991744559977    3.44149753219100
H         8.13617899733243   -1.91345769616970    2.06610563948770
H         7.60363523072741   -1.14297495666106   -0.50506459374744
H         5.60840047836493   -2.61743637765924    1.19575994249297
H         5.91038223641821   -2.72351596474412   -0.53574672695994
H         8.44212480710728    2.24495281297779    0.68075788466290
H         8.70055660364561    1.64525368554455    2.29859447816015
