30
 energy: -45.976194082338 gnorm: 0.121879400344 xtb: 6.4.1 (79825abcba525fcdf90b791dcacef51065a7a4e7)
C         1.13073535007145    0.21676155803738   -0.06035216080197
C         2.59420328033607   -0.05885983659372   -0.05197556212270
C         3.23194156245102   -1.28830211582874   -0.05725292099684
N         2.73334036068853   -2.48870653987760   -0.40810749637575
C         4.63060048661050   -1.14047969506268   -0.05858565547150
C         5.00488911753339    0.16489941366622    0.11210018068783
S         3.72476823868820    1.25191081557389    0.03846058857341
N         6.35491676844465    0.39707610449846    0.13120318400328
C         6.78343465240784    1.14078425809018    1.35289814909307
C         6.60166825039589    0.05918792597918    2.43771891442248
C         7.56077793081926   -0.91685231493469    1.76112727933137
C         6.98669579465726   -0.98335252195945    0.33594946633181
C         5.81411586317245   -2.00078575857602    0.16775828757349
C         8.79545627411915   -0.10473472381706    1.44537612653740
O         9.94997921734558   -0.47032888403777    1.28092444383335
C         8.30809351020669    1.31575654590799    1.27727647039511
H         0.57654886184671   -0.00032561250428    0.85768644137822
H         0.80763380348149   -0.27757827949029   -0.98190413123613
H         1.09237043596085    1.29862709118796   -0.22776322199101
H         1.72498435396263   -2.58190537186751   -0.33704817020061
H         3.20633737224600   -3.33515739503691   -0.10641599123033
H         6.16857303056315    2.04406190988830    1.33739678666756
H         5.61463795641546   -0.39131300066845    2.58375315715953
H         6.83668354391635    0.41174252602822    3.44828888620426
H         7.65570208627256   -1.89662385774170    2.22507463127961
H         7.82076402027487   -1.10914117986626   -0.36590483807060
H         5.73262462143889   -2.73754469648335    0.97373513596545
H         6.09587326470306   -2.48896229517134   -0.77152762194790
H         8.66516166776855    1.74884544603596    0.34118875930948
H         8.80168049530308    1.79828262862152    2.12499178208591
