30
 energy: -45.977841310433 gnorm: 0.122244985781 xtb: 6.4.1 (79825abcba525fcdf90b791dcacef51065a7a4e7)
C         1.13447075607200    0.21417022173673   -0.36585613170868
C         2.57464826400773   -0.07296410025731   -0.11843276868164
C         3.17706680945820   -1.31879535241001   -0.06131305182147
N         2.47492719596985   -2.45559851823127    0.10406954036708
C         4.57133566715123   -1.17189410125352    0.05064421212161
C         4.94923462840755    0.14194435279488    0.11592183769966
S         3.70318671382008    1.24258938762537   -0.13241495660257
N         6.28611764559865    0.39227466323559    0.28000765581571
C         6.81104827865040    1.05937750397732    1.50829493163936
C         6.85319313718942   -0.06514077793563    2.56347652464152
C         7.72302398192305   -0.90433464962662    1.63102270662849
C         6.91174076759046   -1.00518763881870    0.32842046455783
C         5.74583673353906   -2.04296411436194    0.28270249637458
C         8.93372259976926   -0.04625158092948    1.34542387205062
O        10.08109383339208   -0.27674367717506    0.99323170565129
C         8.31765429821268    1.33314765093865    1.38138240953669
H         0.44904937311863   -0.53265655124319    0.04583753224708
H         0.89399853774918    0.19644953467253   -1.43350945101497
H         0.98471313957085    1.24268903611984   -0.01994708374719
H         1.64903308471392   -2.54033071672495   -0.48008511294485
H         3.09404096107557   -3.26001311543436    0.13302263892444
H         6.19017657715918    1.92572355103547    1.74947637001270
H         5.81870648338395   -0.32877280688406    2.80604899660615
H         7.29776751925411    0.29085809961990    3.49963731331793
H         8.00520793416418   -1.89533496422469    1.98102358083281
H         7.46911356076020   -1.00120831348117   -0.61678416421395
H         5.69087541339520   -2.55367261402692    1.24976470716935
H         6.02875302102894   -2.73963832617939   -0.51389339455834
H         8.63929997029043    1.97452511374228    0.55888445723620
H         8.60140372396093    1.75518519277357    2.34908657927788
