30
 energy: -45.980481028320 gnorm: 0.114327281086 xtb: 6.4.1 (79825abcba525fcdf90b791dcacef51065a7a4e7)
C         1.15165642307278    0.05405004130095   -0.66305472814164
C         2.58402616436883   -0.04289490409628   -0.26720842473958
C         3.15845265224234   -1.27836979053568   -0.01840671662113
N         2.49078403577497   -2.42095355643766    0.22937107526633
C         4.53001302885456   -1.12367506078453    0.25176307741577
C         4.95253475140272    0.17322425192675    0.13876821937581
S         3.72207316847656    1.26336502573858   -0.21234920653398
N         6.31223298295791    0.32367684494520    0.21245915416551
C         6.87895593727665    1.11169375867285    1.34697333797878
C         6.95845374944034    0.11393311594181    2.52080447837333
C         7.72278800880606   -0.90857607061674    1.68379176868221
C         6.85673965966661   -1.09211020924366    0.42625455179207
C         5.62433846387624   -2.00617513303056    0.71621138120980
C         8.89629016661727   -0.05567046872935    1.26057893102624
O        10.04258054260341   -0.43242576845480    1.06641278672940
C         8.37812481048193    1.35644781075951    1.11565813929779
H         0.83765172695572   -0.61160618016847   -1.47258991575052
H         0.97130480227236    1.10538240691714   -0.90840767735719
H         0.50251046033550   -0.10310904660901    0.20518596878877
H         1.48632508210030   -2.47268675084714    0.36685992076160
H         3.07655009656092   -3.25039103284558    0.24097196658871
H         6.32834480282881    2.03787420061880    1.52924455265046
H         5.97149671423877   -0.10379884789136    2.94153537860134
H         7.57350377876979    0.53325874245473    3.32495501339664
H         7.97796428419851   -1.87564641152472    2.11259246946915
H         7.40947847596405   -1.39213435793629   -0.47294362829356
H         5.53258571973095   -2.18991245334973    1.79179274158552
H         5.80943149105448   -2.99224064924708    0.27646490007044
H         8.42652668546016    1.81970122611581    0.12855257262803
H         8.79597689053758    2.06137280444291    1.83923341248934
