30
 energy: -45.976292496953 gnorm: 0.128307471190 xtb: 6.4.1 (79825abcba525fcdf90b791dcacef51065a7a4e7)
C         1.05580172574662    0.27405326920935   -0.25375855190659
C         2.49115937457024   -0.03383818630841   -0.00330501147320
C         3.34533584283210   -0.98172919907572   -0.54196211133678
N         3.01369309009007   -2.05745284654526   -1.28054494182088
C         4.67893015547403   -0.66638442509590   -0.22544367461392
C         4.86608852277639    0.31945627672977    0.70532489482709
S         3.36068987924729    0.91526747212987    1.15755271894479
N         6.19020858122847    0.64367656472429    0.84109269571551
C         6.72254328511840    0.37047956875572    2.20902951894852
C         6.92858406240655   -1.15814743891918    2.18510431777572
C         7.84445594429145   -1.10521998234255    0.96498155657070
C         6.94373196802925   -0.36158643479728   -0.03543327807345
C         5.91350733248132   -1.28556394817276   -0.75883158252465
C         8.88562744921117   -0.09384829230509    1.38540228484079
O        10.03660165715065   -0.07225323407327    0.97501381003558
C         8.17162905919560    0.87302040616839    2.30134258152457
H         1.00402117226128    0.75258996015709   -1.23628884575751
H         0.72813757559505    0.97116852243638    0.52386028094373
H         0.47293337565738   -0.65338669499622   -0.26089789135100
H         2.09755756476848   -1.93290966752463   -1.69971314089497
H         3.66390948760646   -2.14021368294994   -2.05616872830680
H         6.02534551631528    0.76942598451704    2.94994965868731
H         5.95048995786026   -1.62783933182380    2.03940828199242
H         7.28387777075161   -1.66775471396440    3.08779219800076
H         8.28499050717643   -2.06435912336166    0.70004491315120
H         7.48366765477491    0.16986570409339   -0.82923434357609
H         6.05322296255820   -2.34100543188399   -0.50275337011864
H         5.98131842184339   -1.15051827119160   -1.84378591734045
H         8.14803941200578    1.89949499235793    1.93104902246211
H         8.57372699195983    0.99185340949867    3.31093495172664
