30
 energy: -45.981180821018 gnorm: 0.120455514161 xtb: 6.4.1 (79825abcba525fcdf90b791dcacef51065a7a4e7)
C         1.09470704984508    0.11631848920390   -0.44898195511855
C         2.55206427624933   -0.05166839015000   -0.19272814617693
C         3.18814610450628   -1.27749654059245   -0.08779235340076
N         2.58647683521790   -2.46886557262238   -0.26472961097347
C         4.56783992833391   -1.08345339385088    0.10428120933074
C         4.97774378075084    0.21736314525596    0.21871650276805
S         3.68609320110317    1.25353109890232   -0.07062898074779
N         6.31810785862846    0.47777802170138    0.33031332426210
C         6.85968997603879    1.05738493705793    1.59522938143744
C         6.91578421854077   -0.09094102393540    2.62378500606797
C         7.72600844522562   -0.92562258442413    1.63526815250676
C         6.90072715257806   -0.93896124762588    0.33763290102112
C         5.73738254185500   -1.97776105275443    0.26064822013896
C         8.91110563704935   -0.03847165620359    1.33166929993267
O        10.03376010041489   -0.45007423277574    1.07896997441760
C         8.34714362909434    1.36319315440254    1.36096128416166
H         0.59608268099072   -0.12627706261484    0.49418584760447
H         0.80254751486399   -0.53869739044288   -1.27579603514985
H         0.75593105369526    1.14308418967360   -0.62480684417095
H         1.57640378702751   -2.37880604868159   -0.21826452719572
H         2.95182428050640   -3.25915960655626    0.25793621780714
H         6.30432563500375    1.96019684738693    1.86113675578386
H         5.88445027577970   -0.45521348497763    2.67027973146727
H         7.19348315861911    0.17387697712883    3.65020272309756
H         8.13177280901970   -1.85669115363893    2.02600670788577
H         7.55755536488699   -1.06178922431356   -0.53275898924423
H         5.66446386324216   -2.66552612228272    1.10959775474262
H         5.80441468023015   -2.60492093729039   -0.63497377437222
H         8.40187587423807    1.86605924027031    0.39377260095652
H         8.78442841006854    1.94330732529418    2.17786418694508
