30
 energy: -45.982044439344 gnorm: 0.122791756059 xtb: 6.4.1 (79825abcba525fcdf90b791dcacef51065a7a4e7)
C         1.08067959146230    0.14024302534931   -0.17781799007453
C         2.54964442425997   -0.05942673285180   -0.03621990761693
C         3.21426443522553   -1.27266510409584    0.03159741295456
N         2.67601694653631   -2.50260379375471   -0.06946370374080
C         4.60581753079657   -1.07964024621490    0.09809135263258
C         4.99830129013020    0.23139438048387    0.07847038189307
S         3.67225921892761    1.26094385505343   -0.00735716921888
N         6.35276322775634    0.43080593925400    0.12860530676750
C         6.82548741237297    1.12309848417197    1.36413388591353
C         6.73046453602168    0.01877418100648    2.43705710429470
C         7.61750317307603   -0.95684302412818    1.66786551612131
C         6.96997284293946   -0.96377822682219    0.27295306132208
C         5.79040478776425   -1.96746518587536    0.07387001714026
C         8.86769024842145   -0.10983896066407    1.61058741224691
O        10.04324035671082   -0.39900752897759    1.44298622986120
C         8.35295807929177    1.27627938175816    1.29865449910637
H         0.55977917510794   -0.09216410833340    0.75582758309207
H         0.65485525488239   -0.42703363874260   -1.01142181943175
H         0.89422448393120    1.15884114075746   -0.53506264479477
H         1.70805059855523   -2.65797844851441   -0.33293507413259
H         3.25628016073912   -3.23245418606985   -0.47175214938400
H         6.22644561994305    2.02615255908068    1.50501644292159
H         5.70445259088272   -0.34743939789364    2.54519123388559
H         7.18412276325670    0.41950843563117    3.35050380369257
H         7.86283944965393   -1.96982194194108    1.98074543212241
H         7.70163306068545   -1.05809819458070   -0.53937022893486
H         5.72201300712577   -2.75455625525285    0.83206751669209
H         5.78014485982745   -2.54003978675271   -0.85994723005715
H         8.60184769525631    1.55335437010582    0.27268799020267
H         8.71688794414764    2.04934107505081    1.98057198321318
