30
 energy: -45.984379038271 gnorm: 0.115196234591 xtb: 6.4.1 (79825abcba525fcdf90b791dcacef51065a7a4e7)
C         1.02578991168001   -0.01005825443485   -0.03269022841529
C         2.51464638417502   -0.00742276288899    0.00009943501533
C         3.37051439156520   -0.64933043692419   -0.87950887184372
N         2.96018622894067   -1.31312416281054   -1.97663309946894
C         4.68356483677669   -0.58225553181081   -0.38000959082423
C         4.78744073389247    0.09479385320269    0.80491833721243
S         3.34830611103888    0.82931426627665    1.26870422925027
N         6.09738667949686    0.39766911548690    1.06788945154108
C         6.71988065343085    0.10376626612520    2.39280090684150
C         7.05387878912319   -1.38688530893446    2.17802457172040
C         7.90778714155919   -1.14460526430833    0.93606520047521
C         6.98431408504898   -0.30638177647905    0.03623006056827
C         5.98695538424567   -0.98820614446351   -0.95310987781344
C         8.85059960171539   -0.07027323601929    1.42655449143389
O        10.02261234151654    0.10217747783201    1.12609889935121
C         8.10415945508496    0.76912440812557    2.43740270448427
H         0.66761414502714    0.36350949217145    0.93126082350563
H         0.59146982383922   -1.01205242033514   -0.10616319495978
H         0.61899766302415    0.50385112285972   -0.91038527255393
H         1.96660522897792   -1.49513650976142   -2.07755680116795
H         3.55356630913452   -2.00808724456719   -2.41952065480684
H         6.04071596364038    0.34027087125476    3.21560496850854
H         6.12218331810266   -1.95327074386450    2.07975465865388
H         7.60586055689272   -1.84784229132465    3.00483373445856
H         8.36406807400425   -2.00406942953925    0.44889061345548
H         7.50615817711281    0.46255118286332   -0.54730477481253
H         6.04549469855172   -2.08144031737491   -0.93153620926497
H         6.20298931884101   -0.61095330821903   -1.95858052872634
H         8.18224445831474    1.75860645312973    1.98336318706397
H         8.52410099924405    0.79299520463143    3.44644188541820
