30
 energy: -45.978365094279 gnorm: 0.104510408226 xtb: 6.4.1 (79825abcba525fcdf90b791dcacef51065a7a4e7)
C         1.09545829172486   -0.10177357403182    0.20062390731711
C         2.58262965159832   -0.16978767263757    0.16226873164333
C         3.40337295873881   -0.78967304843299   -0.76530272868743
N         2.93215889644878   -1.52072225638910   -1.79301730111479
C         4.73182509508546   -0.36847962196909   -0.57580058856334
C         4.89086474776218    0.45030077275006    0.50934701070395
S         3.46004909047741    0.75345190848827    1.33795547365235
N         6.16860435139084    0.70146979017551    0.93495390999512
C         6.57418326656389    0.11091317081002    2.24492208135548
C         6.80556431745493   -1.37894004883503    1.91853896568197
C         7.82994185358877   -1.08550891772899    0.82543741205406
C         7.06662774792931   -0.06790766497030   -0.03883317294489
C         6.08484662073202   -0.72347315934318   -1.06095941903578
C         8.83744056242710   -0.24008067137132    1.56965634352082
O        10.05161023536301   -0.20793748484065    1.43406322392355
C         7.99367873542440    0.66781568593395    2.43415943185502
H         0.61976089068366    0.82682304430661   -0.12871585138999
H         0.63394957465407   -0.35390914765595    1.16055196818851
H         0.79078989253421   -0.82784723053832   -0.56090453797146
H         1.93340550068372   -1.69664852248988   -1.74764227382999
H         3.44439776990071   -1.99293039911091   -2.53183649519475
H         5.80569020901384    0.22182733815758    3.01389678370431
H         5.92674403930890   -1.93736711393326    1.58039695644644
H         7.16294626961850   -1.79835604851411    2.86571738665166
H         8.25365361443233   -1.96779577913546    0.34978180560134
H         7.79325247267641    0.63944034827190   -0.45807934608641
H         6.14581511732149   -1.81385502913947   -1.14098098027895
H         6.31342829468785   -0.33930283024425   -2.06102200002334
H         7.96001607927658    1.67184439236480    2.00740769029813
H         8.32478189131161    0.64397041461094    3.47573654641301
