30
 energy: -45.978993763703 gnorm: 0.115681350941 xtb: 6.4.1 (79825abcba525fcdf90b791dcacef51065a7a4e7)
C         1.10373717469160    0.05071877626634    0.04507967693092
C         2.59117034888680   -0.00455361709030   -0.00249370412508
C         3.37351682131069   -0.99652651454392   -0.57011158306873
N         2.89360667117610   -2.10077171637639   -1.17260777591823
C         4.74132201439190   -0.76441738567653   -0.33916926458967
C         4.97911164198002    0.43506225703453    0.27560301586853
S         3.56743956595035    1.23357325819947    0.71751725699791
N         6.31039249694021    0.59238245593182    0.55806940558955
C         6.63441439166411    0.63661672390827    2.01488824655207
C         6.75909228690592   -0.86297663531202    2.35459536481258
C         7.75039986652184   -1.12737866773190    1.22423125521277
C         6.99860590278872   -0.64459419305750   -0.02750728101672
C         5.92519922773526   -1.60358987114662   -0.63292263785010
C         8.80421370425634   -0.07437651340117    1.47785941683500
O         9.98100629193158   -0.16490943612115    1.16070067286991
C         8.10022996815793    1.07159389372036    2.16686894704837
H         0.69839058399122   -0.96506756308934    0.01480378286681
H         0.63116720559889    0.47525052699879   -0.84625356263793
H         0.73765450157982    0.58795696776271    0.92672017902044
H         1.93453897369233   -2.34465437038179   -0.94627242778126
H         3.41632537019793   -2.96725613755846   -1.08779683455231
H         5.97993728521706    1.31914061419634    2.56263497969550
H         5.79413282467763   -1.36724735429478    2.24027054237402
H         7.16716437862165   -1.01547065230194    3.36008099143385
H         8.14798384028357   -2.13152001984042    1.09067547710305
H         7.58829829859705   -0.34737750873572   -0.90387317209711
H         6.03910741488419   -2.58551738934827   -0.16186371097873
H         5.85860101256715   -1.69348993505692   -1.72262178904436
H         8.22680090322428    2.00168364730961    1.60987997371807
H         8.35519734194556    1.26572831687069    3.21204082175442
