30
 energy: -45.978313496887 gnorm: 0.112091993558 xtb: 6.4.1 (79825abcba525fcdf90b791dcacef51065a7a4e7)
C         1.05025730157503    0.08415214072066   -0.09571828339038
C         2.50220546181626   -0.11342641834713    0.16995995651934
C         3.31758138418680   -0.65137642876655   -0.81189448580953
N         2.80224790690611   -1.42698423116695   -1.78428166299470
C         4.66580383807403   -0.42860396466683   -0.47907517035047
C         4.84624567642438    0.30183596026837    0.66422642442361
S         3.39340660469859    0.73875652475294    1.38816365878226
N         6.14159839152462    0.47535979373090    1.07507488092027
C         6.68248884565258   -0.05515701451466    2.36164296667465
C         7.09811806364665   -1.49973200016671    2.01497134440447
C         7.97260190202549   -1.08793512738481    0.83343694968592
C         7.01909011420693   -0.19994627715014    0.01648196058309
C         5.99234705256553   -0.92557873798215   -0.90961662210832
C         8.88355776216432   -0.06022537475460    1.46402118046755
O        10.05146927839425    0.13460699205009    1.16128414435912
C         8.02992212259987    0.67516857721822    2.47103525111464
H         0.92895556685724    0.67835963559147   -1.00634867464640
H         0.40723171189254    0.42617008009478    0.72132904775818
H         0.71852697798614   -0.90060312985530   -0.44233537530607
H         1.81392490273279   -1.39560358036502   -2.01395575345382
H         3.32353893789135   -1.89372038465886   -2.52024091252075
H         5.97746063514558    0.10984930661923    3.18012556693444
H         6.12397730676383   -1.92018008466800    1.74519536182241
H         7.69315881458994   -2.06768303585566    2.73894422342840
H         8.43483327218313   -1.87980253837330    0.24734976965517
H         7.57965361340884    0.62481721231907   -0.44136715187591
H         6.06326915896886   -2.01421305377980   -0.81528414408242
H         6.25493871082770   -0.76469284768320   -1.96086490278814
H         7.93595100812558    1.74185437104540    2.25967131031554
H         8.44566975074302    0.53593829029096    3.47245904777349
