30
 energy: -45.982869291674 gnorm: 0.111550292666 xtb: 6.4.1 (79825abcba525fcdf90b791dcacef51065a7a4e7)
C         1.10422111659797    0.17524259973387   -0.60625413163515
C         2.52008467464761   -0.04128835973307   -0.19855273400558
C         3.19313086213112   -1.24756220342352   -0.09766405755649
N         2.66717524750429   -2.48327626959912   -0.19281821498933
C         4.56964593296304   -1.09197120041592    0.14543621620086
C         4.88292203474871    0.22293817856855    0.36017250152883
S         3.64824648228790    1.27032553037348   -0.09180323595633
N         6.23298967853885    0.43959159262526    0.44516818143997
C         6.83576168200897    1.07056375394252    1.65669945988983
C         6.94579593885132   -0.13455459580351    2.61341674995025
C         7.77117160253993   -0.97732956096042    1.64449593588315
C         6.90616122781590   -0.93458957836759    0.37364790372436
C         5.73915290045701   -1.97211797076950    0.36828565910012
C         8.89820221389124   -0.05338043499859    1.24476552913643
O        10.04819482334838   -0.40270895467010    1.02315042072319
C         8.29671766371770    1.33282797501934    1.25952988373826
H         0.55216116702646   -0.59328772205351   -0.05704076292442
H         1.05077666961922    0.21098704833971   -1.69890711658541
H         0.67925697835418    1.10437075491891   -0.21121271040445
H         1.65213851081279   -2.49737808149166   -0.19715987801167
H         3.08908293566663   -3.31063066907594    0.21791477526741
H         6.23244154100952    1.89831896533111    2.03752979648555
H         6.00443652881191   -0.62327995509990    2.88451797022576
H         7.51775446745600    0.14139674741630    3.50644132975250
H         8.02365771003232   -1.99217062357125    1.94542516332816
H         7.50205249280521   -0.90529313744853   -0.54730126564457
H         5.73352098568494   -2.41724366863819    1.36872787406580
H         5.92349913508256   -2.67233335474539   -0.45370976437295
H         8.23299737370113    1.74534064581803    0.25101766861331
H         8.82334382245163    1.97411549494075    1.97121519939025
