30
 energy: -45.970182566324 gnorm: 0.120010108850 xtb: 6.4.1 (79825abcba525fcdf90b791dcacef51065a7a4e7)
C         1.15263152234423    0.25035992680526   -0.45044250682181
C         2.55894264156763   -0.05779862777116   -0.06951856232929
C         3.19139386431303   -1.28972728572703   -0.04454785125165
N         2.62819840620871   -2.49817354403276   -0.23200827789773
C         4.58075342083029   -1.14916579405615    0.12285152363159
C         4.94167070435678    0.16822244942308    0.20926452486301
S         3.68552831083940    1.25896206258703   -0.03181523201935
N         6.29840637454486    0.31804036749234    0.32617703226975
C         6.78555988332327    1.06497682290727    1.52368919745464
C         6.87430901548809   -0.00157448175265    2.63468769189287
C         7.72949725600741   -0.90694798000513    1.75192267406233
C         6.93032795568934   -1.07206300083693    0.44839291144380
C         5.72929815585090   -2.06199046148271    0.32200696372902
C         8.85995907626361    0.00364882153868    1.33176327178508
O         9.95842538427022   -0.38580859975554    0.96390275492342
C         8.26837970524868    1.39359200137598    1.29093177932090
H         0.45187366498386   -0.27805858444230    0.20282365372794
H         1.10932004116505   -0.02447026649091   -1.50903449618786
H         0.92267064046598    1.31542607952001   -0.33782165865902
H         1.65083934818981   -2.55757142567419   -0.49988597331954
H         3.29609947271767   -3.26302266812480   -0.22030477042589
H         6.12872078202954    1.90754068030207    1.75358954267800
H         5.99753482764418   -0.50011117446715    3.06040365109235
H         7.40305815770283    0.35528784555272    3.52567154542253
H         8.15322832014991   -1.87777013928655    2.00125445747956
H         7.56643390209978   -1.04404697563230   -0.44529404920586
H         5.67579009378637   -2.68024361171765    1.22420049517001
H         5.75636215434607   -2.52231608673238   -0.67163755954225
H         8.40822470270547    1.69451789253441    0.25111888657939
H         8.64548197808459    2.06080026360360    2.07048793096504
