30
 energy: -45.978256504309 gnorm: 0.119872637663 xtb: 6.4.1 (79825abcba525fcdf90b791dcacef51065a7a4e7)
C         1.15440185449543    0.23222883945646   -0.51953711780326
C         2.56986988004112   -0.06446060298993   -0.16428885325121
C         3.22222932359975   -1.28617634583782   -0.15408752977849
N         2.53720841601968   -2.43913847937659   -0.03535443612860
C         4.59434124005308   -1.10320066132849    0.09476751568334
C         4.97435944028866    0.21164154519062    0.09881962499039
S         3.67786787422756    1.26603603081336   -0.08308133022328
N         6.31384017346681    0.39890956843786    0.31691979467282
C         6.78784224171032    1.02299154917847    1.58779025377334
C         6.92579020395047   -0.16812689146955    2.55832256673090
C         7.79324883649891   -1.00879046125612    1.62498315484892
C         6.94129602211192   -0.99829400483600    0.34467436035487
C         5.74968061432723   -2.00641696647311    0.29837989225199
C         8.86232393563007    0.00545355160447    1.29024160874473
O        10.02814156592907   -0.28349839970290    1.06440384132968
C         8.25848242996255    1.38996411482809    1.33586337622244
H         0.54807615061033   -0.40185638579558    0.13418257168575
H         0.95335538936190   -0.21138552066819   -1.49974685954086
H         0.91366573215445    1.29533585778634   -0.41099701470450
H         1.57589773974560   -2.35852937738066    0.28071714436513
H         3.14072526338728   -3.21381964060228    0.22321759566052
H         6.08747993880978    1.77617515947559    1.95713118569011
H         5.96233222088662   -0.68042925656040    2.64664520739692
H         7.21225886381866    0.16792306744666    3.56121076411831
H         8.14264405033874   -2.00452127641469    1.89078975321478
H         7.54041818551346   -1.15232312144139   -0.56164772472546
H         5.58665952287418   -2.49831054348320    1.26301353365515
H         5.87688186883411   -2.79323285871903   -0.45308679980001
H         8.33572055295109    2.13323734757759    0.54031133903232
H         8.64260026065883    1.91633117008947    2.21362871987227
