30
 energy: -45.974916922185 gnorm: 0.122578320691 xtb: 6.4.1 (79825abcba525fcdf90b791dcacef51065a7a4e7)
C         1.09907120182852    0.11969365246250   -0.16709277315847
C         2.57949051620525   -0.03426116968046   -0.21641099471501
C         3.23147956136149   -1.24231809029224   -0.03263105343827
N         2.70274386544472   -2.47324881379931    0.10123831387729
C         4.62910102343662   -1.09570434935751   -0.08971632342447
C         5.04490909082751    0.20059143625467    0.05156770834433
S         3.72999523442499    1.24592923404730   -0.01165025818434
N         6.38897225663377    0.43928567555985    0.16717437380431
C         6.79075201498280    1.13999332966191    1.42290117825534
C         6.66495896994333   -0.03254807836739    2.41741035553540
C         7.62621923324187   -0.93311492898083    1.64586630108908
C         6.92982988710499   -0.98980921142782    0.27584731583021
C         5.78099651781622   -2.01825012690319    0.02908114044465
C         8.82687254535596   -0.04264867351806    1.42413254127362
O         9.98196209920122   -0.44153031450294    1.40715509531493
C         8.30503970673381    1.37018584290857    1.30098820887280
H         0.79118066744087   -0.10337454581257    0.85881578617676
H         0.62684819130529   -0.51917800444218   -0.92000243641945
H         0.80308930303210    1.12454823051297   -0.48739476588916
H         1.69991201631466   -2.33727225550424    0.18096245469704
H         2.95252263684509   -3.11981489039439   -0.64091117253010
H         6.12723212426327    1.99531585189077    1.57246843790065
H         5.74336760828218   -0.60363973142780    2.56916533510058
H         7.11475248588549    0.24166426981732    3.37828078583612
H         7.88352390660387   -1.91368480621519    2.04145072969398
H         7.73286163639426   -1.12496457642016   -0.45965597870670
H         5.68537180419754   -2.58411315657939    0.96166260110429
H         5.88454868146358   -2.78592716420746   -0.74545776787071
H         8.72455940989212    1.87099089302350    0.42661907046039
H         8.64936335332016    1.95982304828789    2.15471531760971
