30
 energy: -45.979232033499 gnorm: 0.126912910402 xtb: 6.4.1 (79825abcba525fcdf90b791dcacef51065a7a4e7)
C         1.04775851661312    0.05619184643846   -0.25511492780305
C         2.51716445187474   -0.11321691131372   -0.08213355565305
C         3.25488808238562   -1.28539845074605   -0.07760138809149
N         2.61381960079329   -2.46557338506857   -0.17189450505060
C         4.64565735485145   -1.07653244143951   -0.06224370890889
C         5.01433021197326    0.23769853785927    0.03834221722031
S         3.64056067876408    1.20504102613466   -0.01392482153588
N         6.34992105355802    0.50884786360684    0.17805897402615
C         6.87897125505805    1.19832111121615    1.39214320714924
C         6.75591201112572    0.09876867425612    2.46711604839873
C         7.54524408908886   -0.94290079069261    1.67831837566409
C         6.94711693156487   -0.89931794824876    0.26217261597320
C         5.82932401620913   -1.96220907510883    0.01885430206980
C         8.80274326207023   -0.13166172844557    1.46795821443732
O         9.94708757175358   -0.55732763102302    1.52191479377099
C         8.40592336514949    1.31214396681724    1.26415809292646
H         0.40253514533734   -0.64593069167402    0.28131318085801
H         0.79632982197525    0.23141275942894   -1.30587929849693
H         0.88363699300267    0.99432201457602    0.28609415603817
H         1.67017946042688   -2.58535027507648    0.18266729591987
H         3.13058098640281   -3.28585136278169    0.13030524887263
H         6.46249799588600    2.19560078758089    1.55397305791398
H         5.71217315143630   -0.15870508438315    2.67405165105318
H         7.24141148381866    0.35424384703560    3.41569461711176
H         7.62601461840857   -1.93799578363372    2.11129885201063
H         7.70595264398350   -0.98703381744769   -0.52558771603583
H         5.83482957775228   -2.62706067342740    0.88890905551348
H         6.07240302984233   -2.53465312677445   -0.88291173916663
H         8.85702801496674    1.63528387670631    0.32425966092346
H         8.91880172693945    1.82220368183758    2.08383830924066
