30
 energy: -45.974984496260 gnorm: 0.118040281275 xtb: 6.4.1 (79825abcba525fcdf90b791dcacef51065a7a4e7)
C         1.09261926596582    0.11161663129145   -0.32459431359389
C         2.57445969507127   -0.02036028991629   -0.25746200220600
C         3.21778373333262   -1.23436345156105   -0.08254257551559
N         2.72181335954961   -2.48566732226856   -0.05213027904150
C         4.59905323407229   -1.01419470173869    0.06483570090295
C         4.97456841596620    0.30194422889365    0.06747589440012
S         3.63108850138481    1.31223492048936    0.07750233480071
N         6.31241144454876    0.50424518559239    0.28217571037969
C         6.85891497932591    1.10848718879161    1.53337253869278
C         6.81040251686345   -0.06788279092469    2.53013026516858
C         7.64697715550638   -1.01386373616228    1.67246768632964
C         6.88956635367939   -0.91365827821146    0.33777216825874
C         5.73378402453725   -1.95506527509273    0.20345523311585
C         8.82985756026769   -0.11568097922407    1.39367373043245
O         9.99061294268359   -0.49160634128572    1.32329093403162
C         8.33703662967174    1.29302757948736    1.15651737899200
H         0.76614926561290   -0.49251847114973    0.52715828283763
H         0.75396542179055   -0.44769235979473   -1.20238218557467
H         0.70019177146764    1.13191199592932   -0.39480404670537
H         1.98885278253670   -2.62703998504780   -0.74009819393899
H         3.44732644920598   -3.19611206568332   -0.04108453273569
H         6.20241179758094    1.95074100340717    1.76535899336445
H         5.75572718209000   -0.36023341707139    2.50373070447330
H         7.19975782326344    0.04415873585812    3.54827944229953
H         7.92755525485340   -1.97787345484007    2.09219523230539
H         7.63941305699750   -0.93397771462235   -0.46310803545914
H         5.58813910721806   -2.50412630364907    1.13960307425956
H         5.89460424187536   -2.63574682108485   -0.63961717768476
H         8.44936688082511    1.50504215107594    0.09173777501829
H         8.89618149918429    2.01394354069950    1.75877810051619
