30
 energy: -45.971292535162 gnorm: 0.119077881617 xtb: 6.4.1 (79825abcba525fcdf90b791dcacef51065a7a4e7)
C         1.11556545750398    0.26455318172808   -0.19570712888124
C         2.54509857073448   -0.09419086129803   -0.40904602030529
C         3.23802764324780   -1.27171745855018   -0.18200704006972
N         2.69805061232780   -2.49954995638368   -0.29830428290244
C         4.61314153660739   -1.09017983229212    0.05081463497511
C         4.97307587355622    0.22846826531898    0.12049073956577
S         3.63858729863831    1.22054272029875   -0.12579080767878
N         6.31996477308913    0.40588162861306    0.29729694696962
C         6.78220143560051    1.09295464154956    1.53968817076074
C         6.82954922470599   -0.05330204571624    2.57098810179211
C         7.66959826160066   -0.97217251379039    1.68763265034605
C         6.94381858124714   -0.99278070315012    0.33192488758265
C         5.75561898141680   -2.00446395085678    0.27641740771034
C         8.84036901093290   -0.04375553447614    1.46179608770556
O         9.96805098501609   -0.34191498021848    1.09702083513028
C         8.29066246460828    1.36348089024815    1.42887546430419
H         0.90396707037539   -0.10813585300508    0.81095734872100
H         0.43459234067506   -0.26955551313550   -0.86580267314816
H         1.12370614563459    1.35108148002480   -0.33470838500822
H         1.68510350926880   -2.55796534940290   -0.26600722411139
H         3.20836856462206   -3.34597424488595   -0.06514231084081
H         6.20923996787001    1.98261618273102    1.81249420434161
H         5.96651876014841   -0.58535756002678    2.98402712782389
H         7.30254257602298    0.25315204031227    3.51074434004796
H         7.95232137025042   -2.00110522638871    1.90111598679395
H         7.56967088197174   -1.09131942802978   -0.56400539750377
H         5.58373261122584   -2.59992165228956    1.17915681577425
H         5.97702918026662   -2.66413568836867   -0.56961587674658
H         8.52872345586378    1.76015898871964    0.44029197262690
H         8.75582334481603    2.03574667309167    2.15466114826698
