30
 energy: -45.978908074498 gnorm: 0.119133936109 xtb: 6.4.1 (79825abcba525fcdf90b791dcacef51065a7a4e7)
C         1.12303423219338    0.18330854704535   -0.29246797678155
C         2.58883854544126   -0.04533096838310   -0.16240106308604
C         3.21491680287791   -1.28020673845081   -0.19947059921499
N         2.60257724955521   -2.47920307564142   -0.18847299838213
C         4.60597751819482   -1.18172928065323   -0.01684434998674
C         5.01138407370812    0.12536779225159   -0.03641578782026
S         3.74240477457133    1.21569562798050    0.12668787042866
N         6.34906665060660    0.38885910654310    0.09783498412330
C         6.76869608989453    1.16049635048748    1.30521027641276
C         6.73084214643950    0.08188635077610    2.40743225700538
C         7.63657292159934   -0.92898265365341    1.70877798435375
C         6.98063937443944   -0.98911599049548    0.31908033840848
C         5.81323650229790   -2.01649874890032    0.17745557059169
C         8.85034907775732   -0.06347690598952    1.46116612523672
O        10.02343276807566   -0.38517072430013    1.34278361669934
C         8.29550795014509    1.32852701524712    1.26609737662924
H         0.57243148828211   -0.66809932873166    0.11861063058585
H         0.90166928290703    0.29257937690298   -1.35880843292250
H         0.86764352839247    1.05442115975612    0.32061421546240
H         1.64700008760858   -2.40041286621343    0.14496616757477
H         3.05879685819325   -3.28459579291502    0.22917425822625
H         6.18850073744959    2.04494059710436    1.57968679327057
H         5.71311253799615   -0.31656850507287    2.47040890783400
H         7.09084843681635    0.39481004669369    3.39396803162254
H         7.74497863942901   -1.85519436703944    2.26966129046664
H         7.73377403155486   -1.14982104332396   -0.46261917884113
H         5.61802641806855   -2.67455279481893    1.03063265132462
H         5.99041881205016   -2.65397366873823   -0.69558151344942
H         8.60124443134844    1.94080064309584    0.41582090471372
H         8.58169866498156    1.79327159140943    2.21329753342228
