30
 energy: -45.972206043053 gnorm: 0.122058482720 xtb: 6.4.1 (79825abcba525fcdf90b791dcacef51065a7a4e7)
C         1.15984058309353    0.29600317764756   -0.44973701289364
C         2.56167001237514   -0.11724905061146   -0.16360319395736
C         3.20635208972135   -1.34305257058630   -0.15605001305412
N         2.60445854221837   -2.54645497442562   -0.20316376788227
C         4.54823985520602   -1.14700828470433    0.21678229767890
C         4.95800929202528    0.15858685805561    0.24417974731371
S         3.68353060934822    1.20209574382234   -0.09125930994266
N         6.30301538318735    0.40421986653407    0.33060122721909
C         6.75503086078759    1.12247648828513    1.55903821497573
C         6.83380576880600   -0.05620409616155    2.55112306137642
C         7.72375305745200   -0.94777702272632    1.68890863673584
C         6.95122060196794   -0.98345361592498    0.35960612498267
C         5.76238554758916   -1.99233528608959    0.27456873050694
C         8.85609710390082   -0.02949669961836    1.29113659649032
O        10.02637781830452   -0.20352412656106    0.98489457081220
C         8.25237228340100    1.35574556097717    1.30512330476614
H         0.47172747859472   -0.26537495787614    0.18932426697652
H         0.83279210134686    0.03990491251025   -1.46239564112204
H         1.04039984472358    1.37509068404124   -0.30401317947799
H         1.62635462353008   -2.52394400217402    0.06761892943594
H         3.09436193127907   -3.19410443717287    0.40656389602359
H         6.18495985948478    2.00900555480257    1.84763983995089
H         5.95704611723999   -0.63253464341211    2.86359946384037
H         7.46588612512923    0.24815199447582    3.39291899601778
H         7.96876891762409   -1.94970921193752    2.03576470976770
H         7.50510655798766   -1.22512904307066   -0.55630620395968
H         5.83483715778488   -2.57254408664936    1.20039903261404
H         5.75973780392403   -2.70568765803202   -0.55674527693475
H         8.53723051018729    1.93823867808280    0.42712476913234
H         8.79956299751898    1.71459081854558    2.18084768295853
