30
 energy: -45.976601457667 gnorm: 0.120706357168 xtb: 6.4.1 (79825abcba525fcdf90b791dcacef51065a7a4e7)
C         1.13259006653332    0.16194345838079   -0.50726886990968
C         2.57236912660500   -0.03751345833253   -0.18318722556327
C         3.17061685478313   -1.26232653599226    0.06216737793287
N         2.58011930076528   -2.47208212381376    0.04032801403963
C         4.56239454057946   -1.08223872110230    0.15502919232452
C         4.97400578040207    0.22087679779253    0.23057000548561
S         3.71800036226283    1.26320555591575   -0.17158321078961
N         6.31751716267049    0.45687218004337    0.35756988248920
C         6.82510938207198    1.01335783137386    1.64673312145304
C         6.92721452801731   -0.19377978504104    2.60178236848123
C         7.78446136091225   -0.96589114904453    1.60213538958052
C         6.89200394593007   -0.96318123749554    0.34968307620149
C         5.71605342774751   -1.99056653652627    0.34497265524978
C         8.92584717816461   -0.01768090929020    1.31612814072748
O        10.05353011414985   -0.20630070894815    0.88441012870049
C         8.29749876140698    1.35553351146106    1.37122650451739
H         0.39475925323652   -0.35579874234437    0.11288682418191
H         0.92071488381205   -0.18397878193208   -1.52386674373021
H         0.91432282740917    1.23492161060584   -0.47550934746920
H         1.58219130631994   -2.59317460753487   -0.10107081515357
H         3.09245526459272   -3.34884496080682    0.04499549580270
H         6.17748856873309    1.84920223077297    1.92269878858267
H         5.92190557728506   -0.56894127687549    2.81883917316663
H         7.32031493613521   -0.00025158424569    3.60617149052422
H         7.92095090077589   -1.98536937944662    1.95744477792308
H         7.45325432493175   -0.98547974336324   -0.59296895038789
H         5.61963545917121   -2.65045216304702    1.21348159199643
H         5.78429196751620   -2.69714323812775   -0.48932612674367
H         8.20527383973782    1.86551272666941    0.41063312997536
H         8.78600800016838    1.98550432923259    2.11927481584791
