30
 energy: -45.979125650533 gnorm: 0.117802901947 xtb: 6.4.1 (79825abcba525fcdf90b791dcacef51065a7a4e7)
C         1.14314849788661    0.23667736559566   -0.35668839243850
C         2.60159567887282   -0.03892712452978   -0.23524010890706
C         3.20852082268036   -1.27363955007062   -0.07588711713140
N         2.64597059589886   -2.49287136257398   -0.17429394650273
C         4.57078537623915   -1.09693715605634    0.22595981980644
C         4.98765338097445    0.19118254847501    0.02543813428777
S         3.72054574322859    1.28201808933659   -0.14846443625673
N         6.32358090675791    0.31645780837827    0.30193290822017
C         6.77249307203157    1.06906557747809    1.51078666570393
C         6.82898283113681   -0.09413213458415    2.52247126845700
C         7.75303776041772   -0.98094998477243    1.69180962841005
C         6.91156045216201   -1.09398670903129    0.40952143292679
C         5.68910096010390   -2.06201083145557    0.32630819075468
C         8.85159490082961   -0.00946156828667    1.32705374814822
O        10.02584442406638   -0.24413847165412    1.08273534605026
C         8.26980603778015    1.38450533711328    1.37125094405475
H         0.49705632361618   -0.51163598397161    0.11196543425667
H         0.84944802596323    0.41845364071183   -1.39530378933123
H         0.95452624086122    1.17519893928597    0.17578720785231
H         1.64654433168112   -2.55114098927325   -0.34242806770915
H         3.10691051300216   -3.28523558554404    0.26264577506211
H         6.02209008684038    1.82774569723585    1.74638263681749
H         5.82311184229522   -0.46189427148579    2.74936430777125
H         7.35148641790604    0.15742459937067    3.45224963644580
H         8.18891772421986   -1.87917229129196    2.12472458924230
H         7.44658289406813   -1.16583325483559   -0.54582201975530
H         5.57139272101026   -2.65721426927377    1.23786228521196
H         5.86951322223995   -2.66675863812918   -0.56906496778318
H         8.52423552323709    1.90125140544743    0.44412473570602
H         8.65643301799954    1.85100232634317    2.28118551332282
