30
 energy: -45.975417694861 gnorm: 0.124813756343 xtb: 6.4.1 (79825abcba525fcdf90b791dcacef51065a7a4e7)
C         1.10024783679828    0.14093649742876   -0.18860605084883
C         2.57155341300375   -0.04544607889824   -0.05333914389343
C         3.18347049621934   -1.27878463188438    0.09732528791971
N         2.54646562148836   -2.46218118610296    0.01688734444113
C         4.58111250378910   -1.12163243946688    0.09755267795755
C         5.04004883158738    0.16722044269581    0.05913439690654
S         3.74810102939331    1.22469905806520   -0.13666117768804
N         6.38588049683604    0.41883399787676    0.10681418491311
C         6.79687898843237    1.05601879821883    1.39302713715806
C         6.72403347639035   -0.11346525015291    2.39638466950317
C         7.68673545917940   -0.96199263766457    1.56962694364182
C         6.95904617379576   -0.99763012539729    0.21525526273398
C         5.76346364363384   -2.00189156806808    0.23632011188166
C         8.86066300580877   -0.01817578291968    1.44810226943764
O        10.04591872485204   -0.30518255869029    1.36796074057604
C         8.29808589798684    1.38351351255527    1.39963038282897
H         0.57426136859226   -0.30339811394013    0.66165823834799
H         0.61958284522049   -0.23528354191387   -1.09714563473459
H         0.89924848431280    1.21772495045315   -0.19617265343033
H         1.60663455618022   -2.40918871358307   -0.36314772458778
H         3.12322725496405   -3.23177085503109   -0.30915060357892
H         6.20846645192428    1.92492242627892    1.69795794553641
H         5.67162193747742   -0.35606837075611    2.57549236233425
H         7.12950261647451    0.26130385390836    3.34291596703687
H         8.10086787184701   -1.84215296239083    2.05750209741309
H         7.69793840275664   -1.16722275022434   -0.57807233184111
H         5.65923850778589   -2.71077513463785    1.06437472618901
H         5.82324801882014   -2.53284340469908   -0.71996308747297
H         8.55663963306154    1.81141253325147    0.42938491800599
H         8.73575101862935    2.03143010558169    2.16365532674302
