30
 energy: -45.974444805211 gnorm: 0.127037081486 xtb: 6.4.1 (79825abcba525fcdf90b791dcacef51065a7a4e7)
C         1.19296550281739    0.34809514244876   -0.33440038661245
C         2.57429372929659   -0.12052454434156   -0.03422774781377
C         3.21739906529195   -1.34427003437668    0.05020433005932
N         2.53524770952421   -2.49989400099843    0.15917976886888
C         4.60849854187536   -1.20446961900649    0.20316879959895
C         4.99034693277172    0.10569718690310    0.09878965111962
S         3.71164660123643    1.18745241604863   -0.04423879088198
N         6.35133407589171    0.26226008293030    0.10569313173261
C         6.80498093681408    1.12968611642335    1.23309926310095
C         6.80297525852479    0.17829483137438    2.44742061442612
C         7.63283307304525   -0.88088011716895    1.72644446429055
C         6.94344983378178   -1.12493089190915    0.37355335807910
C         5.76162523690732   -2.13304100866665    0.21415770920566
C         8.81351614984580   -0.01617599977135    1.34969700918898
O         9.95618817451502   -0.36964364397588    1.60067099223175
C         8.30374119463949    1.35845134582382    0.98349411402623
H         0.71294277414785    0.43092541408267    0.64527389337636
H         0.57365736900029   -0.29311337702218   -0.96948588843619
H         1.19097610601013    1.26558104858557   -0.93285424580773
H         1.55486462448634   -2.36795066328174   -0.06876155156298
H         2.91921951980235   -3.33116655839527   -0.27988123874580
H         6.17275626281931    2.02048365974055    1.26436140358129
H         5.82202765552469    0.01791744281796    2.90625258872965
H         7.38348560340431    0.64423021311709    3.25159134340135
H         7.86196809498264   -1.84417049652050    2.17786312051487
H         7.73636757174318   -1.27034778875150   -0.37091117539069
H         5.79975120945320   -2.71957140454817    1.13805258161614
H         5.91936019791735   -2.79493020611864   -0.64431999489191
H         8.56298581331782    1.52921126917032   -0.06290788476905
H         8.76317739115670    2.14571255382000    1.58699966807171
