30
 energy: -45.974025285995 gnorm: 0.123853548777 xtb: 6.4.1 (79825abcba525fcdf90b791dcacef51065a7a4e7)
C         1.16189167802692    0.16663363752052   -0.60733387063609
C         2.58516815293126   -0.06128803204043   -0.23301919188471
C         3.15025676747716   -1.30804968726967   -0.02200615830322
N         2.43882453485183   -2.45108501185230   -0.02470906403583
C         4.52968626596727   -1.09859870879595    0.15520725309468
C         4.94183260250112    0.19455836069251    0.33161714004294
S         3.69810732211532    1.25604124078092   -0.05841819236178
N         6.29087284135375    0.42747808895879    0.38342868757578
C         6.81106771140833    1.05092257050069    1.63641801839289
C         6.94028826676977   -0.14335527735204    2.60426522556788
C         7.81362457045830   -0.96607930161849    1.66047973394976
C         6.95063881358229   -0.95503431616097    0.38758618988397
C         5.73917420922605   -1.93757691581389    0.31433373622956
C         8.94414260155341   -0.01222026724540    1.35105072652513
O        10.06024401233603   -0.35871733137648    0.99344186325749
C         8.27964122188272    1.34371116552921    1.29220114571977
H         0.50902553487463   -0.54121967616654   -0.08795553384594
H         1.16553722803347    0.09462254476524   -1.69949943865440
H         0.75934504640511    1.16387868699582   -0.39903146901695
H         1.44852696172021   -2.33442414506294   -0.21501998699944
H         2.85178868112121   -3.33341421893895   -0.31137746924366
H         6.29616538629362    1.94317753317182    2.00105798212806
H         6.04313781581692   -0.68810462810520    2.91551287739051
H         7.43309640803384    0.26049161957500    3.49579560763419
H         8.21119781304066   -1.94003596943158    1.93896482325866
H         7.48366783940729   -1.08085652617368   -0.56327704211524
H         5.57749015589818   -2.62626481405802    1.15016893280045
H         5.80673519149970   -2.70683235047220   -0.46261103695484
H         8.38326990271297    1.90443456956675    0.36151632875991
H         8.64333909731303    2.04136760175977    2.05120057556772
