30
 energy: -45.977352457301 gnorm: 0.110671125678 xtb: 6.4.1 (79825abcba525fcdf90b791dcacef51065a7a4e7)
C         1.12832767618409    0.24748759674039   -0.26275776802600
C         2.55154466527228   -0.11425641717939   -0.01502732726467
C         3.19713499926937   -1.33086876354440   -0.16108829712513
N         2.59471459395199   -2.51345810477583   -0.38746186126331
C         4.57598579077541   -1.21875125773374    0.09248657859528
C         4.94654142248554    0.09737901788826    0.15355941351852
S         3.67275335034079    1.19409610816535    0.17360000403478
N         6.28792125276107    0.36712356038563    0.22272333198945
C         6.84569917649203    1.16692182733311    1.35341980709807
C         6.78698788550810    0.15638727695777    2.51750685529133
C         7.61187656474724   -0.85308651330917    1.72325028017162
C         6.94432481057219   -1.01141613087652    0.34686706059769
C         5.79267403121086   -2.05560519238356    0.19931350035219
C         8.84683953568134   -0.03853047280360    1.41498204653126
O         9.99436224745473   -0.41605301864786    1.22979288165457
C         8.35549809312539    1.36543202813523    1.14843319631001
H         0.49656059099016   -0.21744913265731    0.49996666448817
H         0.84762107002275   -0.01149566813262   -1.28850432111722
H         1.02045998905309    1.33736127369037   -0.28446716102608
H         1.61002442019834   -2.58828986266078   -0.62262726289929
H         3.12578941524151   -3.32585184116846   -0.08879994961434
H         6.29397562405421    2.06028995738686    1.65624010919933
H         5.81369237210006   -0.23264957998142    2.83350061400322
H         7.32695270500768    0.59280791939561    3.36530023773975
H         7.68455598117118   -1.81765082698115    2.22179155721224
H         7.75441703926549   -1.06919304502588   -0.39103839901987
H         5.90517526498415   -2.73480507959837    1.05083227801599
H         5.90349474891794   -2.67189590226535   -0.69950022899682
H         8.72004332644261    1.56874910035089    0.13992300291662
H         8.83342240260951    2.00976557465862    1.89106595816645
