30
 energy: -45.977871985534 gnorm: 0.114246907955 xtb: 6.4.1 (79825abcba525fcdf90b791dcacef51065a7a4e7)
C         1.19527106125947    0.26710708788838   -0.24360420590778
C         2.61533084454690   -0.08943013445198    0.02858529695035
C         3.26198341883519   -1.31344403032545    0.07213665254112
N         2.65822972952250   -2.51409056010490   -0.00911777616415
C         4.64657032027867   -1.14208139399321   -0.10577908588839
C         5.01290778721096    0.17616751205916   -0.07032565313396
S         3.72172557112607    1.24447543610468    0.06117609365073
N         6.34973331178910    0.45608014322956    0.03640784882129
C         6.71205825826366    1.08012481211405    1.34352561999913
C         6.57291086071241   -0.02494770012035    2.41084866865357
C         7.59233761009836   -0.90350295045087    1.69027115926093
C         7.00795342256432   -0.90769470496985    0.26773752885607
C         5.88573626149904   -1.94952860113065   -0.03822511461358
C         8.82679526297209   -0.06332275531828    1.45815927321857
O         9.96909899008370   -0.49694487787935    1.48537549515595
C         8.22987049075502    1.31772276301679    1.31684579665868
H         0.46714856994597   -0.04666480973731    0.51033824051582
H         0.85773805068921   -0.33189896284422   -1.09524247350497
H         1.07809718321100    1.34019089571652   -0.42986422191525
H         1.66204912732332   -2.58103109415302    0.17435011285032
H         3.11186969525353   -3.36726516457005    0.30317514452042
H         6.19248580178259    2.03737307575036    1.43255284961077
H         5.60951531116651   -0.54238066606044    2.46221040416891
H         6.90905749007493    0.34634267088138    3.38549091387811
H         7.87109803413940   -1.90390320181018    2.01538956854578
H         7.84871994257176   -1.04692742149126   -0.42350625187063
H         5.79944289950282   -2.77978485913210    0.67049290777728
H         6.16561001885079   -2.42006505231212   -0.98702842428421
H         8.57561275208505    1.81719694043397    0.41003175706963
H         8.52855396917477    1.88060532403765    2.20512063246472
