30
 energy: -45.971313056405 gnorm: 0.118876709211 xtb: 6.4.1 (79825abcba525fcdf90b791dcacef51065a7a4e7)
C         1.16958502865920    0.07945012321595   -0.04952320227119
C         2.65029287610412   -0.06633120410961    0.01394154881415
C         3.24067259511295   -1.31358034674387   -0.10474984978557
N         2.61354137948415   -2.50069379779460   -0.20545228152207
C         4.63440806813794   -1.14886797078854   -0.01271010634469
C         4.99062424273091    0.17067208571631    0.05915327327851
S         3.73267785401076    1.28516741431636    0.09375240962646
N         6.34489997339138    0.37631472517410    0.08137843738428
C         6.79685812658495    1.16673989361090    1.26469152666901
C         6.65221932784202    0.16580191459708    2.42956427723240
C         7.53323806182671   -0.88500173010239    1.75878870830969
C         6.97147169070921   -0.99896390076716    0.33170933187321
C         5.82868812395272   -2.02235895650935    0.03997205372834
C         8.81832068376615   -0.13231203307907    1.50249734978591
O         9.99590982184024   -0.45413878827480    1.56027307752976
C         8.32347144779289    1.23945292792788    1.10631490280041
H         0.63141779330848   -0.22989902999808    0.85143379114658
H         0.84836429142156   -0.55679396408141   -0.88020678705429
H         0.80674080648062    1.10243362518164   -0.19710435650253
H         1.60706336351953   -2.54091240384919   -0.33155447593179
H         3.23303191788725   -3.29334872568470   -0.34384529377641
H         6.32411438519146    2.13031651476751    1.47021299955877
H         5.57459209743295    0.00917260865104    2.54222615847756
H         6.98868063119251    0.62826126239827    3.36428548994046
H         7.54119346142285   -1.84170471550442    2.27731173302525
H         7.81841398133015   -0.91567970803436   -0.36099879918184
H         5.88028261231052   -2.78807607218940    0.82104090246882
H         5.91161435549129   -2.35621342069630   -1.00004045585065
H         8.48816663813995    1.39493264542601    0.03859517429104
H         8.85118785873080    1.97221156267593    1.72248124031900
