30
 energy: -45.971640838747 gnorm: 0.116169589617 xtb: 6.4.1 (79825abcba525fcdf90b791dcacef51065a7a4e7)
C         1.25392166051029    0.27143295738081   -0.16012436656324
C         2.67582171143910   -0.09914494191243    0.08204907169051
C         3.26209896217268   -1.35381297583455    0.10084828947875
N         2.62791508455275   -2.53589370091700   -0.01390739351554
C         4.65941955430307   -1.19616142114401    0.07362319875279
C         5.02647606938064    0.11936077663954   -0.01532138043986
S         3.77067716968676    1.23502856866671   -0.07841306057973
N         6.38369404460007    0.29539313165211   -0.07710802022247
C         6.77171713015197    1.17300118171691    1.06679327646475
C         6.62315710335862    0.23845728095043    2.28510496045757
C         7.54253244716189   -0.83566200392354    1.70948450342501
C         6.95889217545528   -1.07163333502751    0.30634304965068
C         5.79513788142414   -2.11269104684213    0.32299057546577
C         8.81184951265718   -0.04781755922321    1.48188902073470
O         9.96747636404274   -0.37919819016272    1.70175291244914
C         8.30216993808798    1.28855565615917    0.99413009857389
H         0.55288387079605   -0.43174699316308    0.29936268420481
H         1.09124760961885    0.35237235413306   -1.23948088401133
H         0.95845905492382    1.23035942865353    0.27929939711622
H         1.63885260038104   -2.46662876803468   -0.23179511982755
H         2.72115272312568   -3.28618099760456    0.66402970612210
H         6.08054884573509    2.01828367485477    1.11139744648022
H         5.56748561078657    0.06240231207482    2.51547039660988
H         7.16845905472694    0.61453832738779    3.15802387403361
H         7.59168434904815   -1.70227532036701    2.36581937789589
H         7.72942036428284   -1.44667565864985   -0.37901935147914
H         5.67748294258392   -2.72474318203511    1.22332536671594
H         5.81989743503549   -2.77361689905329   -0.55023652297881
H         8.64220695854188    1.44522499003080   -0.03112763077786
H         8.66779759326085    1.97430717477290    1.76298772784253
