30
 energy: -45.988244742527 gnorm: 0.109207356532 xtb: 6.4.1 (79825abcba525fcdf90b791dcacef51065a7a4e7)
C         1.11343878027243    0.21004549489764   -0.11281715720282
C         2.57193121222560   -0.08891362081074   -0.07819092953599
C         3.22529210206911   -1.30894288161691   -0.02420545727625
N         2.64448958980681   -2.52323523417916   -0.05310867546322
C         4.62544094568536   -1.17636178574610   -0.01393378336551
C         4.99207037158871    0.14218811569015   -0.02972236689465
S         3.70412747552287    1.22241307243583   -0.02315056899818
N         6.33459530534127    0.38450036536037    0.09580525555497
C         6.81127057334171    1.11765311621956    1.30598529344536
C         6.72901361040350    0.03243564832420    2.39926594637938
C         7.64957218762752   -0.92123993153517    1.64203614857282
C         6.98485629131018   -0.99310665618994    0.25707682503560
C         5.81405574776259   -2.02589902130540    0.22595804632575
C         8.85105917221406   -0.02668777831459    1.44236177004241
O        10.03501088225611   -0.32214876442081    1.51009527477783
C         8.32465992631963    1.37569348250714    1.24284725827699
H         0.56804503261973   -0.24050624086960    0.72180441560888
H         0.61702196774022   -0.02123238464536   -1.06050139570856
H         0.99188937241432    1.28936014512818    0.02943963414858
H         1.65623434785902   -2.47420178173017   -0.27996673999794
H         3.19987421092935   -3.30158417035235   -0.39507920088529
H         6.21086467952648    2.02814902361084    1.37465545114749
H         5.72209029003528   -0.39180686425805    2.46730714082013
H         7.08242065247593    0.27889211618213    3.40680814155433
H         7.78929102801612   -1.92848340771491    2.02952710603063
H         7.69724987244408   -1.12665874177291   -0.56678680626231
H         5.62461140499686   -2.59680296116193    1.14096228651459
H         5.89469209363822   -2.76443693524246   -0.57903954228727
H         8.57758898183843    1.88445460067225    0.31090687075319
H         8.62451609193585    1.85822716208272    2.17683243492086
