30
 energy: -45.976224207175 gnorm: 0.128577554682 xtb: 6.4.1 (79825abcba525fcdf90b791dcacef51065a7a4e7)
C         1.12586498003018    0.22386925079975   -0.42345802759402
C         2.57511276435614   -0.00085688634174   -0.16470188432597
C         3.17405199185538   -1.23820455608903    0.00414375979734
N         2.56048532775740   -2.43621916857879    0.03528589491242
C         4.56798388951693   -1.16077989282343    0.17461181686060
C         4.95845591802214    0.15020164789158    0.22042956942340
S         3.75724916859015    1.26672761006291   -0.14862079943225
N         6.30523790461648    0.38981695914282    0.29531879684404
C         6.75226629677590    0.96616860079419    1.59810519225355
C         6.87549593035241   -0.22049468352581    2.57604714118475
C         7.78651106805612   -0.99871325080035    1.63013517204282
C         6.96663560827190   -0.99151054096178    0.32902920783184
C         5.77026821061597   -1.99164008215724    0.41178376977768
C         8.83003662683310    0.01958423750854    1.23290851393941
O        10.01127324925851   -0.15995342139119    0.97586193588264
C         8.20575170396757    1.39167475810640    1.33879214763446
H         0.47022197980966   -0.30030203809171    0.27826919469758
H         0.87040468737475   -0.05399222021585   -1.45086134164594
H         0.97281780919543    1.30853588001850   -0.42096088253860
H         1.57335523019577   -2.51817869733499   -0.18691694807725
H         3.13488384954727   -3.18093352731709   -0.34771521227010
H         6.14623972202767    1.80772378083266    1.94266621168759
H         5.93363512117781   -0.74584550663418    2.76422422825932
H         7.24314798552528   -0.07940095917614    3.59864341102911
H         8.11002431046337   -1.94933391107309    2.04950322140089
H         7.58684614837656   -1.19721132767657   -0.55251383209743
H         5.65271985917842   -2.50348858330727    1.37264106016346
H         5.94191312669224   -2.69535558149065   -0.40997295320756
H         8.26627625231233    1.71684568973835    0.29863614444956
H         8.73293032413398    2.12019638363468    1.96041882594972
