30
 energy: -45.975997361060 gnorm: 0.112044077709 xtb: 6.4.1 (79825abcba525fcdf90b791dcacef51065a7a4e7)
C         1.12105811499677    0.11471695301869   -0.28509349544903
C         2.59626437503034   -0.08146268298582   -0.22981475733933
C         3.28048820701506   -1.28292167037453   -0.14857237864378
N         2.66245218316920   -2.44763330897328   -0.42087946573528
C         4.61376126874869   -1.11223308592242    0.26537012578968
C         4.96738985167009    0.20962510028421    0.23573844841421
S         3.68856114699834    1.25546821042817   -0.07496300661491
N         6.30870724133221    0.48292511299696    0.29069644435142
C         6.81957678867053    1.15694778722162    1.52113284389373
C         6.79318367586107   -0.01769800772844    2.52075097378495
C         7.67271903897518   -0.90182072906864    1.64037223143972
C         6.89516653193032   -0.93205817495430    0.31386472384543
C         5.77756931916012   -2.02099189673608    0.37388281721331
C         8.86986231422604   -0.03972262566247    1.31280663156827
O         9.96517877849173   -0.57255150194241    1.21279711062529
C         8.31670237574593    1.36490634761173    1.24493221491466
H         0.52247834163120   -0.48108458333224    0.41044022837449
H         0.68597433201376    0.02400910482139   -1.28534282075072
H         1.01844180638367    1.15283730948010    0.04913304662792
H         1.67736138929311   -2.53056656428675   -0.19015128662054
H         3.14934465437458   -3.28082773253009   -0.10473747526263
H         6.19118390640075    2.02456668620387    1.73692315341708
H         5.78414643602795   -0.39407051136171    2.71745754155563
H         7.35914983017868    0.27270202976638    3.41301143588689
H         7.99961245525068   -1.86663833484031    2.02309628058780
H         7.55583966684306   -1.16669768096294   -0.53026048287176
H         5.60605849092090   -2.56431718236984    1.30899505426747
H         5.83731559624628   -2.80375682677939   -0.39010084839144
H         8.42633949434535    1.88172336823489    0.28983863990036
H         8.78167059110504    1.99111008271258    2.01093105522662
