30
 energy: -45.976603491706 gnorm: 0.127175299629 xtb: 6.4.1 (79825abcba525fcdf90b791dcacef51065a7a4e7)
C         1.14225313871262    0.20250915625730   -0.47115390016575
C         2.58419819456029   -0.08636961840669   -0.23637908116205
C         3.18176900225919   -1.33286950653864   -0.15027768504252
N         2.55574417024417   -2.52324002092316   -0.21179065431190
C         4.56631705205928   -1.09619652860527   -0.07877485307701
C         4.90942053601175    0.17808204498223    0.28417748877107
S         3.61775997324351    1.24690434534844    0.16187475374146
N         6.25538727869532    0.38134474914704    0.43878487569323
C         6.89689375931555    1.14751338955356    1.54816446241621
C         6.98260816205508    0.02895746623326    2.60703718381951
C         7.72765770807028   -0.90709469010459    1.65886541071594
C         6.86533320839126   -1.02304448632406    0.39076585371018
C         5.66438155977106   -2.01646094229981    0.29463444782440
C         8.91833074209471   -0.05776221266208    1.27860699800283
O        10.07394182963601   -0.42380012691134    1.12302442740350
C         8.37829780067022    1.35110455978737    1.19473655374006
H         0.52834990976821    0.02210720759892    0.41632699392197
H         0.76514590269371   -0.51676855758355   -1.20494830436891
H         0.98543603623632    1.23087236872064   -0.81438686799948
H         1.60352969309147   -2.56732898628842   -0.56087667261654
H         3.10863784116099   -3.29396781865035   -0.57443406039343
H         6.31270788305627    2.05689015201031    1.70930539245769
H         5.99441050600866   -0.16528512558122    3.03627033426643
H         7.62873759533938    0.32543607833640    3.44094113045995
H         7.87067543936045   -1.85703901307855    2.17010090703649
H         7.47940181258758   -1.07230508857181   -0.51730088461623
H         5.53708942713516   -2.46449969786504    1.28564969561431
H         5.85339544594867   -2.77649981088061   -0.47124822129050
H         8.47259331553204    1.65320175518169    0.15014595893624
H         8.86628384987308    1.98523467968092    1.93960526191015
