30
 energy: -45.977973234699 gnorm: 0.126107454553 xtb: 6.4.1 (79825abcba525fcdf90b791dcacef51065a7a4e7)
C         1.12331990393265    0.21898797946915   -0.09202702543539
C         2.57853963897267   -0.09708477598650   -0.07756193633093
C         3.24203700403398   -1.30838394439633   -0.18144577656627
N         2.46718490568381   -2.39517062499579   -0.35800120936564
C         4.64302872190911   -1.20451324999569   -0.11411705917607
C         5.04807492598855    0.08906461378178    0.07518204579128
S         3.75450192440369    1.16186502370808    0.11383717991503
N         6.38985352270206    0.36449804853853    0.09992534098842
C         6.82429969858400    1.13648737002249    1.30182258889915
C         6.72363264831325    0.05842385969119    2.40062691980526
C         7.59218625702216   -0.94100841422663    1.64097441247493
C         7.02836317266611   -1.02340448344613    0.21253512494443
C         5.85286335159208   -2.03996558285202    0.06019973208407
C         8.80475660402630   -0.04316895047184    1.55599301027598
O         9.99946426120515   -0.28558560185278    1.64279424794267
C         8.34293790813697    1.36949129376445    1.28269841980932
H         0.64848063837384   -0.26010103861296    0.76939375371219
H         0.62614859769457   -0.27221894496645   -0.93438144703590
H         0.90025473558392    1.29062136109734   -0.13416011940649
H         1.53114826327230   -2.21871047233630   -0.00698197429078
H         2.87767902674534   -3.30442814850289   -0.16834805112988
H         6.14554891310819    1.99275522615313    1.31938257357547
H         5.65262469450104   -0.13253023895283    2.52303762856465
H         7.09127551334149    0.39962311609634    3.37489607860076
H         7.71598573657656   -1.88436859922501    2.16913657457664
H         7.79172670166241   -1.08852813267107   -0.57303924575930
H         5.80384847837552   -2.72680371350034    0.91161277123246
H         6.03580686795674   -2.67425070124809   -0.81397167709757
H         8.62285203289919    1.64170033129000    0.26344664031182
H         8.64431100189202    2.05747094794277    2.07701513012315
