30
 energy: -45.980358954623 gnorm: 0.108034982461 xtb: 6.4.1 (79825abcba525fcdf90b791dcacef51065a7a4e7)
C         1.17887909100241    0.25065459071720   -0.51924390532070
C         2.60912893115000   -0.08246681859847   -0.27187528654420
C         3.14955074486408   -1.34191005691508   -0.07184205000906
N         2.49568133718388   -2.51158401373652   -0.20218977614026
C         4.52462957457101   -1.23325368336882    0.20284336350375
C         4.94385559114710    0.06918398528538    0.23669519466832
S         3.75731758187797    1.20660972589679   -0.11560622965173
N         6.28490993953283    0.33382466817680    0.32826026722009
C         6.81771462719403    1.12801889255091    1.47483895931881
C         6.96967754266730    0.11440263421791    2.62775487196087
C         7.77119119467780   -0.87344408471911    1.78392023207410
C         6.89259862048983   -1.05706332773500    0.53512743737313
C         5.69330525223295   -2.05559673520367    0.59016215161248
C         8.88067649529372    0.02241554510010    1.28377797496612
O         9.92740725156428   -0.46460895316484    0.88279351721219
C         8.28578315503231    1.40096012525450    1.11262844367128
H         0.86739016899048    1.01033877558340    0.20387362659639
H         0.58783522599331   -0.67012262100250   -0.48990108619536
H         1.06647926263336    0.71790646955487   -1.50360833424967
H         1.48483280751646   -2.43236432491240   -0.15292739107461
H         2.99208893997416   -3.31423752307011    0.17270997722482
H         6.12561829873150    1.92495836990155    1.75785092025109
H         6.01014173777340   -0.23601729962747    3.02145881755325
H         7.64669183140422    0.54402340074617    3.37465262427909
H         8.16902494634360   -1.76345472877996    2.26746896670903
H         7.42390059142588   -1.16822899238555   -0.41852473554615
H         5.44417039297965   -2.42768969410008    1.58942782417410
H         5.96282686293351   -2.87662322657279   -0.08306529997026
H         8.34708963903951    1.81230750567484    0.10349083381104
H         8.75432077341700    2.19060264051732    1.70593947679244
