30
 energy: -45.982719977913 gnorm: 0.119120052861 xtb: 6.4.1 (79825abcba525fcdf90b791dcacef51065a7a4e7)
C         1.14146417789498    0.23061023556961   -0.36672301903614
C         2.60099524888656   -0.00774158013826   -0.19141428344858
C         3.22653047829039   -1.24344862854903   -0.19159666383585
N         2.56678721667405   -2.41651067019586   -0.15502969046206
C         4.60985774069587   -1.09655551353926    0.01559437879923
C         4.97185186858157    0.20702729272709    0.22265084142293
S         3.70341197791706    1.30129517854635    0.08349594966554
N         6.31368020150383    0.41736468123747    0.40181700102334
C         6.72179590569760    0.94484184154333    1.73766033199713
C         6.84726788585818   -0.32703364398861    2.60155574083025
C         7.75607240383494   -0.99124340922675    1.57042921725902
C         6.93916301422970   -0.97453745442108    0.26754613188944
C         5.77484226868161   -2.00441749521677    0.11886305409478
C         8.86365960978747    0.01524777980104    1.36092873479357
O        10.00809851664630   -0.22851674341260    1.00813259200082
C         8.18840233000636    1.35587220468685    1.53508143553549
H         0.60053008424096   -0.60206996246459   -0.82615567739875
H         1.07079780275982    1.19414604314683   -0.88114456520466
H         0.60554362860283    0.32042373845827    0.58441002501201
H         1.70225699710449   -2.45343470642223   -0.68582286975675
H         3.13551549519673   -3.08886062010806   -0.66071404387244
H         5.99671019422096    1.69872129593446    2.05408110217763
H         5.94926672142989   -0.93310738979165    2.75895462990489
H         7.40649264487475   -0.05217863303797    3.50294411092578
H         8.20771987165645   -1.97576397065403    1.67504204852949
H         7.54169922413695   -1.00283577833200   -0.64910067795074
H         5.73097481255569   -2.64941519390748    1.00266554737992
H         5.94732565782908   -2.56200828770742   -0.80812323201316
H         8.35854913559472    1.80384240739282    0.55442011337565
H         8.61412541571080    1.98560722531906    2.32074958483012
