30
 energy: -45.977717216199 gnorm: 0.114014491327 xtb: 6.4.1 (79825abcba525fcdf90b791dcacef51065a7a4e7)
C         1.12468499281772    0.20971975565383   -0.43693414489891
C         2.55519503600280   -0.06170114954084   -0.12428834277657
C         3.21304107828299   -1.28040026763292   -0.10763563352223
N         2.58802290957912   -2.46175472454707   -0.27019886347055
C         4.61131774623396   -1.15223377874519   -0.02703943706206
C         4.96114452492041    0.16191156543272    0.12750348012888
S         3.67517006758924    1.24383249624206    0.08951843554567
N         6.28500832537742    0.38821812581413    0.39771748415901
C         6.83132982594884    1.14484359261027    1.56318680286980
C         6.89964290987892    0.02797213877925    2.62509886584524
C         7.72266734754500   -0.95318504377907    1.79426583041740
C         6.87742722526765   -1.01990443455394    0.51120618952202
C         5.70719127760829   -2.04847935049343    0.40640240799160
C         8.87411519277686   -0.09193104629003    1.32942843873626
O         9.95995096680443   -0.38996326116270    0.85428199170311
C         8.31898278849497    1.30893486902092    1.21550692593073
H         0.53310512642973   -0.41391176105727    0.23994203342425
H         0.95105466410776   -0.05208297225362   -1.48542656656690
H         0.87957877911623    1.26665734323505   -0.28614539384991
H         1.91743494624130   -2.45344481701779   -1.03227498254786
H         3.19332913768903   -3.24869306748911   -0.48363596046289
H         6.31057021612893    2.03418171613451    1.92663248774541
H         5.86957073223182   -0.25680784099505    2.86249633852045
H         7.51460876516150    0.41109765501438    3.44717577158593
H         7.91031043515646   -1.87780954917683    2.33654769128125
H         7.52319370202143   -1.17306636908603   -0.36264685102228
H         5.39046782491836   -2.54523768714616    1.32942496443480
H         5.90673424121696   -2.88159857826548   -0.27628093844557
H         8.46324126604915    1.78599819178254    0.24446421440572
H         8.78466448025966    2.04352676044193    1.87777280870606
