30
 energy: -45.974404225014 gnorm: 0.122249738528 xtb: 6.4.1 (79825abcba525fcdf90b791dcacef51065a7a4e7)
C         1.09164727900159    0.21015746459309   -0.29026962398595
C         2.55216618403714   -0.07280200112186   -0.22248931714829
C         3.22054756588400   -1.27697220038441   -0.07583753697347
N         2.52967486166784   -2.42848202825611    0.02107950514930
C         4.60962451300729   -1.11466616252601    0.07323308845018
C         5.00025206027792    0.19571094539024    0.13291752922453
S         3.70640605506518    1.21986775006441   -0.18769347906405
N         6.34658682544426    0.38830199716052    0.29765067978969
C         6.74068146218129    1.09182765841307    1.55423695110077
C         6.85860808661464   -0.08663593151475    2.54269161666321
C         7.76537192635426   -0.94588362265086    1.66531204202849
C         6.98460473711894   -1.00369284393536    0.34161076402888
C         5.78757180920294   -1.99924487355587    0.22164954574960
C         8.85823662113737    0.06640746781163    1.41119023295210
O         9.98083369130640   -0.34086113860950    1.15131569838772
C         8.21461796664245    1.42720160415529    1.27863928500703
H         0.60096411954315   -0.48832283570457    0.39412768492892
H         0.64615220420378   -0.02042667458970   -1.26309520779936
H         0.93074368008371    1.27117789250105   -0.07054922878282
H         1.56035482104929   -2.46728076836540   -0.27797001054979
H         2.93501505999012   -3.35343054727822    0.12781542548634
H         6.07712230395577    1.89890198657305    1.87443361069811
H         5.94683183811620   -0.67655435054541    2.68113372978545
H         7.35652928770374    0.11030971171757    3.49875934131928
H         8.20544814737359   -1.88289848218324    2.00079094131122
H         7.63615162819824   -1.23090679514164   -0.51159057635242
H         5.65617936550175   -2.58736765435622    1.13592568113732
H         5.94478033154334   -2.70188646519702   -0.60390594779832
H         8.63043242870627    1.90272556767018    0.38852740294839
H         8.71438907280619    2.00542764437329    2.06028131998507
