30
 energy: -45.975669344491 gnorm: 0.117978922870 xtb: 6.4.1 (79825abcba525fcdf90b791dcacef51065a7a4e7)
C         1.04137826776225   -0.02530642804428    0.15856884234423
C         2.52572654483424   -0.10886434435498    0.07194340153697
C         3.31273614452861   -1.10529529014036   -0.48123608307944
N         2.77761357237060   -2.10270970333117   -1.21026366006339
C         4.68585655739899   -0.84439411848391   -0.32448477154327
C         4.95643240650026    0.38375079223865    0.21559769500822
S         3.53524143072217    1.21400531605868    0.55709397170581
N         6.28192524809715    0.60080891988378    0.48541268558710
C         6.68678622087527    0.76722581004277    1.91287932730675
C         6.89383447996037   -0.62872121470270    2.53592721789212
C         7.69842736369238   -1.13822714267504    1.34288229944973
C         7.02194962474043   -0.66608511388155    0.04496698596946
C         5.94267177139777   -1.55731330885503   -0.64732918586738
C         8.82508095990960   -0.14240053525666    1.49336628636895
O        10.02656992739454   -0.35745669859539    1.43170769256467
C         8.16730131731450    1.17235194439690    1.84311943841229
H         0.79902368762936    0.97539361132590    0.52857973045501
H         0.66407610358526   -0.83184249812588    0.79509627032522
H         0.61238915104838    0.01786730650700   -0.84842457166368
H         1.78145505017267   -2.26248369174221   -1.09775693582986
H         3.35955770590678   -2.91673278918936   -1.38326779025038
H         5.87628157450383    1.32735219510800    2.38568613708848
H         5.92256769581326   -1.08939556712669    2.74311279557364
H         7.43217243502040   -0.66107226560243    3.48982672017731
H         7.98743610729923   -2.17572757220937    1.49869252667872
H         7.76517608788287   -0.37442332445048   -0.70778787760314
H         5.83779566811713   -2.52725020814679   -0.15005999896759
H         6.13613876413147   -1.70900093850543   -1.71481360421576
H         8.34068099253761    1.93180691008656    1.07859899272138
H         8.65076371345024    1.45856369311279    2.78089751999371
