30
 energy: -45.981528889938 gnorm: 0.115699155043 xtb: 6.4.1 (79825abcba525fcdf90b791dcacef51065a7a4e7)
C         1.15426294743477    0.17444629623158   -0.26308563228398
C         2.62460407156815   -0.06098244750855   -0.28420372190133
C         3.19749470770764   -1.30804941959584   -0.09742428608229
N         2.47227124876031   -2.43955389185289   -0.01729032883547
C         4.58480039909825   -1.12598870341542    0.04518310412321
C         5.01218751221104    0.17279849436675    0.10627599077606
S         3.75696192382955    1.24855690931938   -0.19848392038682
N         6.34117224129290    0.45068640347843    0.28909697977431
C         6.73606537258341    1.06243017089125    1.59259111833371
C         6.83443580696337   -0.15806161300882    2.53091345606292
C         7.75857395104437   -0.97585381127602    1.63229964390992
C         6.95330477759368   -0.95318026641675    0.32227985501561
C         5.78748446854373   -1.98062113742315    0.16855729447359
C         8.89324755658417   -0.00369467993817    1.40627571046632
O        10.04479314999733   -0.25570545952789    1.08369240865910
C         8.23432174735305    1.35616198824768    1.41976742746836
H         0.77003841505471    0.14721316445129    0.76096233346515
H         0.63903738873963   -0.52398974534974   -0.92998460452623
H         0.87474156050417    1.14106358640153   -0.69604079939228
H         1.45775798274753   -2.40741788346239   -0.03301938121104
H         2.78552486143287   -3.23670658576002    0.52827611980223
H         6.05557670112571    1.88020647940306    1.84235641373910
H         5.89357539263017   -0.71675506560207    2.49701371084447
H         7.28209327678934   -0.03818196754174    3.52389395099889
H         8.04638627602354   -1.96579831409639    1.98070166008130
H         7.61555045298725   -0.95699504511312   -0.55265338132566
H         5.77124595087537   -2.55442643230663    1.10104698649524
H         5.96527387979962   -2.62704197072178   -0.69775247916616
H         8.39021628336840    1.88825446715270    0.47960874141246
H         8.59215827846986    1.87656728529879    2.31207462010188
