30
 energy: -45.971485920749 gnorm: 0.123168854414 xtb: 6.4.1 (79825abcba525fcdf90b791dcacef51065a7a4e7)
C         1.12810784075876    0.10397103812225   -0.30525915060807
C         2.58709930811659   -0.07313750674655   -0.06494236043129
C         3.22721735653287   -1.29945841885779   -0.13314928681214
N         2.57839289777199   -2.45130355808118   -0.38800707021096
C         4.60524353578970   -1.09896546525564    0.06419934931511
C         5.00391180637228    0.20362645126525    0.19670664806883
S         3.68586071138772    1.24659716895044    0.17064051010958
N         6.33939619990753    0.50864724490657    0.21371733820899
C         6.82500373718129    1.18454945115665    1.45331788511194
C         6.76063907053183    0.05731245247275    2.50446948398827
C         7.59690156492481   -0.91207225209988    1.67303668085778
C         6.92791737331130   -0.90370194557508    0.28829321658507
C         5.79804905678214   -1.97219115571572    0.14641034149922
C         8.85952688915113   -0.11990268300654    1.42422139141923
O        10.02828492310466   -0.46772428112453    1.50577791347076
C         8.32461359186907    1.26192587885254    1.12758525938853
H         0.58027840593438   -0.29819838564924    0.55217133398738
H         0.92059513633765   -0.27915352046469   -1.30934010829086
H         0.80169456603380    1.14231228931054   -0.42868196344788
H         1.59087694637290   -2.62642559226091   -0.23096625762991
H         2.97073038210057   -3.37814945431709   -0.25291088945990
H         6.32279355725429    2.13585525695579    1.64569206263159
H         5.75603261330805   -0.35281527549070    2.64961423657264
H         7.28805204856516    0.42360620781179    3.39241263371420
H         7.58715146855152   -1.91787895815575    2.08832913328127
H         7.63235590926265   -1.05037400443223   -0.54016662482746
H         5.78552019237153   -2.58278759291264    1.05529331046240
H         5.95009600627915   -2.69718204067724   -0.66057883850078
H         8.61240896402366    1.40284109842989    0.08420585028471
H         8.99119400685288    1.98800171815483    1.60041208628965
