30
 energy: -45.978264694509 gnorm: 0.121990309023 xtb: 6.4.1 (79825abcba525fcdf90b791dcacef51065a7a4e7)
C         1.11357048474689    0.20179559507169   -0.29131007523943
C         2.56984132545430   -0.04307402156274   -0.09872290885199
C         3.20451383040918   -1.27409512604350   -0.09207899517922
N         2.50922774125998   -2.41548068904847    0.07067587497417
C         4.60223487602636   -1.12622959742679   -0.04097383964919
C         5.02342865897451    0.17347260721543    0.04032968058368
S         3.73116424693439    1.24328695362267   -0.06585892567731
N         6.36718391015723    0.40543185020020    0.17209600660616
C         6.75953026402437    1.05825829088987    1.45628834928138
C         6.84316984070232   -0.09568576433379    2.47665264134742
C         7.73755016940328   -0.99286810323651    1.62490746108260
C         6.95093532316210   -1.00475482149123    0.30346121820825
C         5.75798424278928   -2.00993429644684    0.23357337897104
C         8.86393880077978    0.00102812508873    1.46033733252464
O        10.01406965051221   -0.33025696165038    1.21320195566440
C         8.25861513720858    1.38221209419867    1.36292319082710
H         0.51346036545636   -0.44539786857626    0.35525998334502
H         0.90921939649207    0.12581617503521   -1.36392010728401
H         0.88314979710426    1.23057594423267    0.00609313409465
H         1.69637833110034   -2.57532780728559   -0.51604554950676
H         2.98644666217885   -3.29797428846525    0.22780684509730
H         6.16544386446793    1.96803016244374    1.57283069722302
H         5.93325458398284   -0.67628629905527    2.65958195163333
H         7.20773178568528    0.21563946753613    3.46202048745205
H         8.01691459032193   -1.97540697402724    2.00011794550285
H         7.56391306651644   -1.21391757017104   -0.58231600486883
H         5.55385907952133   -2.51649015732755    1.18267153531183
H         5.81596239228644   -2.71694783564191   -0.60113134570336
H         8.70580704147453    1.90546840210533    0.51584225830331
H         8.55347083585352    2.08047062078530    2.15068960988156
