30
 energy: -45.970673543439 gnorm: 0.121100061654 xtb: 6.4.1 (79825abcba525fcdf90b791dcacef51065a7a4e7)
C         1.08282698903480    0.09982308246422   -0.13315080441546
C         2.54944499778480   -0.08288454017621    0.04967484859812
C         3.20751864754311   -1.29660236467350   -0.06029955812165
N         2.65589341773602   -2.52346982916840   -0.00391963549510
C         4.58760599569531   -1.04788142601003    0.04738906305590
C         4.95344175928931    0.27085069502856    0.06609921247718
S         3.61863504259500    1.26061340819495   -0.18764648370729
N         6.30253852036078    0.45652764016934    0.21545664752492
C         6.88491816015919    1.14696720721685    1.40431962216074
C         6.86013299919342    0.02502415762202    2.46278796924430
C         7.62656394001095   -0.94278829752247    1.56487659247373
C         6.92815887087648   -0.94162034507436    0.19471113569359
C         5.75561369020333   -1.95716137034397    0.01522133148642
C         8.87939711923201   -0.10331858053601    1.46810877817577
O         9.99124132113156   -0.50039270883192    1.78395887498890
C         8.40450240073903    1.31467363795793    1.25051170492566
H         0.65438579807435   -0.10693529758097    0.85210727452316
H         0.57290813913034   -0.53774415140255   -0.86220177054043
H         0.90453795278943    1.15883730726732   -0.34909814596117
H         1.71473709750308   -2.55091487579484   -0.38337824046408
H         3.33787302269179   -3.17194832429488   -0.38549850732182
H         6.26663180563874    2.00263800729733    1.68672907333123
H         5.79764452573507   -0.16158430178863    2.64933934267720
H         7.33852916553998    0.14132824499810    3.44176144839777
H         7.85022385039399   -1.91763299121842    1.99367035144563
H         7.71133885427511   -1.06092117977409   -0.56455725229308
H         5.81608776174070   -2.76443038931793    0.75259020558841
H         5.68261182239388   -2.47240236385506   -0.94870762456332
H         8.78528398419648    1.61557953767767    0.27286918499063
H         8.67384444971381    2.02978266298016    2.03227556211332
