30
 energy: -45.977223106489 gnorm: 0.112326593137 xtb: 6.4.1 (79825abcba525fcdf90b791dcacef51065a7a4e7)
C         1.18302981775493    0.08667237480160   -0.52248178204854
C         2.63976934531636   -0.10969743767915   -0.28347437751405
C         3.16730198543931   -1.33254832377910    0.09680354622521
N         2.43648948423405   -2.43826293781363    0.33340692579661
C         4.55015427305873   -1.17987659146026    0.30298535269196
C         4.95616363615434    0.10582803535556    0.06769767836885
S         3.77243328317601    1.19528570380837   -0.41973488898060
N         6.29690981357260    0.31647797630728    0.25443791821698
C         6.84821460594904    1.21328566541970    1.31324243229778
C         6.98668044124959    0.31536653592024    2.55995579207039
C         7.73083697556760   -0.81353057182024    1.85133421041461
C         6.81564463322066   -1.07163525248889    0.64264511661331
C         5.60726105830299   -2.02616998279284    0.90163341222059
C         8.82359440914191   -0.08864074846011    1.10028140401587
O         9.95113080983721   -0.52532837553991    0.92253930630602
C         8.33446211620724    1.33237251657873    0.94202115603318
H         0.66341112271728    0.57345046025026    0.30823349977794
H         0.69294174047471   -0.83794806959190   -0.84328582329722
H         1.09264783899363    0.75002846224036   -1.38950033176051
H         1.49681418077840   -2.27163937226774   -0.01266270948640
H         2.92477461039769   -3.31513371338665    0.17881629268750
H         6.36193500161583    2.18458450489544    1.43289335185446
H         6.05086444905182    0.00457337550174    3.03552064414058
H         7.55108493835283    0.77085291438455    3.38139253761265
H         8.13142631905404   -1.70359050753794    2.33251141860325
H         7.45315960894196   -1.48816595245075   -0.14739848101245
H         5.53863776467510   -2.14719479629217    1.98777201835869
H         5.63413839496712   -2.96678200917707    0.34084092565920
H         8.57772493123376    1.71898110210797   -0.04928145811497
H         8.88387130192088    1.90820671084557    1.69145114608463
