30
 energy: -45.971624502518 gnorm: 0.131816275865 xtb: 6.4.1 (79825abcba525fcdf90b791dcacef51065a7a4e7)
C         1.16392884296552    0.32264768137159   -0.61826785972863
C         2.54192210823692   -0.01516899649776   -0.16573036765615
C         3.18171402058517   -1.23518712155724   -0.02259266685694
N         2.72231099788262   -2.47644039024950   -0.26939639699013
C         4.54100673128449   -1.17053557605649    0.33271503803196
C         4.95224894166330    0.13267946580500    0.25688189613432
S         3.70206271683346    1.24522527565217    0.09876080540547
N         6.30834074466139    0.30490488073329    0.34743045321211
C         6.72444495236130    1.10618670752768    1.53657834647205
C         6.92131401878156   -0.04716122027282    2.54194239602037
C         7.78154546297814   -0.97238593728478    1.68503910044918
C         6.94669393804230   -1.08669206345007    0.39853942260647
C         5.72190031123387   -2.05244476046922    0.47340375558808
C         8.84752797015767   -0.01304254459742    1.20858770239673
O        10.00208869622294   -0.23911834713962    0.87767089359861
C         8.20052201827115    1.35243784883138    1.18804507374009
H         0.48601006488592   -0.53604042207930   -0.60707624558318
H         1.19080463863077    0.71881051980324   -1.63824689099612
H         0.76072306128105    1.10580615609229    0.03289976457680
H         1.75876094479980   -2.68746833150631   -0.50930430332755
H         3.23944543765607   -3.28166352903690    0.07032504941552
H         5.93187490478925    1.83580804018527    1.72012957924218
H         5.95638054439330   -0.46961676578540    2.84017148296358
H         7.38660852876552    0.29831606767850    3.47195587146776
H         8.00990492164409   -1.89564924544660    2.21385555286426
H         7.60015043822725   -1.40085626330274   -0.42510341121134
H         5.58600329277583   -2.60656634855106    1.40803443023435
H         5.79567961177147   -2.83014920533867   -0.29451160890352
H         8.34149975760756    1.94035203548679    0.27930635802728
H         8.68433428555348    1.94880141357237    1.96609196846887
