30
 energy: -45.978145738589 gnorm: 0.120996635251 xtb: 6.4.1 (79825abcba525fcdf90b791dcacef51065a7a4e7)
C         1.08460185814927    0.11559083024131   -0.37643307425523
C         2.56165270352285   -0.07382251558736   -0.36163204856719
C         3.19492853674083   -1.27924199775585   -0.10827093246513
N         2.50588142451237   -2.43173548181806   -0.01005833188577
C         4.58604896672285   -1.13287788228938    0.03822664835462
C         4.93044348631065    0.18783891512382    0.13991162937395
S         3.64569153174028    1.24920010399925   -0.08065789300162
N         6.25707787839481    0.45957239050605    0.34739113412726
C         6.87869212773172    1.07414624964127    1.55783019087900
C         6.88803933716061   -0.07930864547790    2.58212516179346
C         7.73355927515479   -0.95722766367496    1.66306237552131
C         6.90649095072604   -0.92770323390374    0.36683296945118
C         5.75953748505440   -1.98677480777201    0.33123091408642
C         8.90737090619817   -0.06078909202586    1.34333040976246
O        10.09162518186042   -0.34519650257086    1.24193558841434
C         8.35553689553026    1.34130316966227    1.22847431185441
H         0.65798771246621   -0.47555982082626    0.43940125077204
H         0.72435242659112   -0.27693149730712   -1.33255602007658
H         0.69833367743829    1.13615143939255   -0.28059828800584
H         1.60015410875628   -2.32409911974929   -0.45569240083957
H         3.09062993067635   -3.17182720307337   -0.38629815544924
H         6.33582998868714    1.96444655124510    1.88474257101927
H         5.91961121715486   -0.51180675986622    2.85341512884055
H         7.42221595547733    0.17972773942543    3.50317570092999
H         7.92873531022482   -1.97138413914456    2.00599527989606
H         7.57223528008439   -0.96904549219321   -0.50446913777803
H         5.69912872523606   -2.52581795999733    1.28245985563683
H         5.95049932501909   -2.54626324183895   -0.59097722510552
H         8.56702687221000    1.85504315755877    0.28897067403707
H         8.80545873914481    1.77241613584865    2.12669072722392
