30
 energy: -45.976892980760 gnorm: 0.112260497816 xtb: 6.4.1 (79825abcba525fcdf90b791dcacef51065a7a4e7)
C         1.01042877568722    0.01789393771053    0.02062177784594
C         2.49405654880828   -0.07210099580224    0.11295406943764
C         3.34127851252964   -0.72765807761173   -0.76495603602950
N         3.03375052214750   -1.36039639116903   -1.91288532309343
C         4.67878003311886   -0.43335817904854   -0.44467912032794
C         4.81155453112144    0.28138512366896    0.71495583396545
S         3.34244336845724    0.78765435415546    1.35614997915903
N         6.11365521287195    0.47123789759941    1.09618460481961
C         6.69488972059914   -0.04782267038980    2.36976639864082
C         7.02019639996525   -1.48553246168919    1.91491271818257
C         7.94898996482948   -1.04104643928400    0.78792697567481
C         6.94590363404329   -0.18889795411424   -0.00755096455068
C         5.96658226763386   -0.97178605420199   -0.93836686807770
C         8.91391123012701   -0.10315832517924    1.47564583363931
O        10.08253994480847    0.15306253647107    1.22607725913604
C         8.06144867627276    0.64704728734497    2.47267870353119
H         0.94979937213045    0.72097392894401   -0.81546850828905
H         0.56639217823786    0.45495687114041    0.92052844956257
H         0.52426167085301   -0.94632318863248   -0.16338434025299
H         2.08301099220404   -1.30947314036082   -2.26504787298818
H         3.69544225192280   -2.07057390255735   -2.21127256512079
H         6.02291068442000    0.07497626498709    3.22274367232667
H         6.12398038547853   -2.05398047175839    1.64626871002150
H         7.45643618756273   -2.01838373511014    2.76728761901756
H         8.36596480501766   -1.75445499883661    0.07983783704209
H         7.42073381660172    0.54464467971511   -0.67128551994361
H         6.05164016284561   -2.04379293892092   -0.73192165182329
H         6.18672818568777   -0.82572978174194   -2.00145902623975
H         7.83782158099330    1.69116123965311    2.24653528623663
H         8.50448210039829    0.62503103700933    3.47183707678688
