30
 energy: -45.979192872384 gnorm: 0.132087281286 xtb: 6.4.1 (79825abcba525fcdf90b791dcacef51065a7a4e7)
C         1.06232325842095    0.06603555650573    0.01897443803668
C         2.54788408154104   -0.01275380175113   -0.04941393661072
C         3.34778753939479   -0.81925377496009   -0.84186489789250
N         2.81014152841364   -1.59218274761092   -1.80425278906339
C         4.68208938836302   -0.64052231621853   -0.43468717237285
C         4.86725793322199    0.28415829535597    0.55723957119759
S         3.42994687904598    1.01504580995399    1.03228319878244
N         6.17938656241111    0.47436598409504    0.90218178675963
C         6.73979251295874    0.26533538260509    2.27021665105701
C         7.05261919108680   -1.23937357992103    2.40331872859718
C         7.91291007832895   -1.18533662359019    1.14343707844512
C         6.95782085224429   -0.57580181116747    0.10353503097693
C         5.92410505664014   -1.38581879653927   -0.74127648901786
C         8.86293834121926   -0.04129351677110    1.41227914892957
O         9.99291493117406    0.17316177584636    0.99901348528165
C         8.11856605170425    0.94335549267261    2.28403119606869
H         0.53311579438215   -0.14356074529424   -0.91539873325258
H         0.71546355631239    1.07004520701794    0.28293937712762
H         0.72088281153919   -0.60838546762570    0.81175818596337
H         1.79816931365196   -1.55139078638229   -1.87328567782092
H         3.19133756425394   -2.52703769368862   -1.69489652756586
H         6.01072869995434    0.65171336475747    2.98672460095130
H         6.15147250160819   -1.85057674825394    2.28986732729390
H         7.59588221842289   -1.54942275473249    3.30304835338397
H         8.41944096686386   -2.05620793792167    0.73207393917303
H         7.54707291800170   -0.02549495831974   -0.64080120116034
H         6.00693760024918   -2.44718721790761   -0.48497766358799
H         6.17942656144311   -1.33645908496713   -1.80538933091198
H         8.11680607560196    1.89927532908554    1.75721240510305
H         8.44801871630927    1.11048427311835    3.31291879796385
