30
 energy: -45.976243100622 gnorm: 0.121096566869 xtb: 6.4.1 (79825abcba525fcdf90b791dcacef51065a7a4e7)
C         1.09182359465437   -0.15465693458124    0.29276458867128
C         2.57670972457424   -0.25338013616685    0.23670565597459
C         3.35871295298382   -0.77442699953946   -0.78076542246445
N         3.06023635180553   -1.37439533931380   -1.94850793879858
C         4.70045175825262   -0.44895540992244   -0.51261386431918
C         4.91913694392333    0.36382515198440    0.56664737100035
S         3.47058862164143    0.76086214739394    1.32149532313083
N         6.19606144349785    0.75841408312460    0.86766067095604
C         6.58597969326385    0.25598313497836    2.21851036180695
C         6.70989542791283   -1.25075332666705    1.91172726130408
C         7.72717395074504   -1.01186192856348    0.79889417499842
C         6.98460985753159   -0.06315355516837   -0.15696949866212
C         6.00385820163657   -0.81281168652303   -1.11328599016053
C         8.77124964870372   -0.23577830702246    1.56783145149176
O         9.98372812016438   -0.34233236237806    1.45751888295987
C         8.03566698452135    0.62915180868486    2.56502222864560
H         0.72209937964033    0.80125751013071   -0.09008779969964
H         0.72917498530750   -0.20040874860177    1.32447059318627
H         0.74129043592531   -1.01959597053956   -0.28076686849885
H         2.65512462702514   -2.29799292685251   -1.83288237695500
H         3.85236581209224   -1.59531778009586   -2.54428237104345
H         5.90867996458116    0.55776925697472    3.02125305993263
H         5.78888419321953   -1.71238507493302    1.54140264557007
H         7.11026573597421   -1.81419601476885    2.76202988718646
H         8.08386493778074   -1.90720859545551    0.29358644487551
H         7.65547205727075    0.63178360489080   -0.67764051528862
H         6.10148749392067   -1.90320850412491   -1.13687691834534
H         6.09569359758658   -0.46744151112019   -2.14877973207784
H         8.21952130938683    1.67408542295117    2.30882855784553
H         8.38175949787207    0.47595242768485    3.59061020904300
