30
 energy: -45.973617626053 gnorm: 0.125495661636 xtb: 6.4.1 (79825abcba525fcdf90b791dcacef51065a7a4e7)
C         1.01123263479522    0.07699540814508    0.11624494865454
C         2.49073118146663   -0.09215531024174    0.13198651295618
C         3.23535832372659   -1.02366344882165   -0.57234956058458
N         2.90805490313260   -2.15617088587569   -1.22271273416539
C         4.60721442229449   -0.82313745737041   -0.33591729468298
C         4.83557175871043    0.27653075592941    0.44627387205452
S         3.46577416361947    1.20555992531513    0.74001766225882
N         6.15283390665602    0.58555988809878    0.66113907221373
C         6.76642221334475    0.68877315080396    2.01838791392694
C         6.93991393428193   -0.81611030493942    2.30985344430851
C         7.81636445180621   -1.05513258844844    1.08305883565580
C         6.94123970280525   -0.51263665884920   -0.05929803627198
C         5.88359375143221   -1.52333725560866   -0.60544060740079
C         8.94081388804373   -0.12630934644621    1.47874209463490
O        10.09615795779418   -0.51428584616377    1.56974205411205
C         8.23597963902663    1.12980525556461    1.93586374149785
H         0.50218903663630   -0.16248479365501    1.05463091878914
H         0.56904646723153   -0.57732640084771   -0.64161974093431
H         0.73381132637450    1.07530629598676   -0.23920428748119
H         1.89974273133813   -2.20122209494716   -1.33131400476497
H         3.39088022000404   -2.32141793173151   -2.10066268282210
H         6.01264415111985    1.21861859954163    2.60600008363680
H         6.08050418491909   -1.49256455008440    2.35812792013577
H         7.52909443032179   -0.83606980759708    3.23356690837353
H         8.24355218516925   -2.04732756281415    0.95164425234151
H         7.55098780219759   -0.04514050117244   -0.84271788344921
H         5.95403090532131   -2.44072252018450   -0.01172677181009
H         6.11600767391401   -1.72330307634032   -1.65708647692714
H         8.41784671829031    1.89543577653258    1.17951848889567
H         8.60035272204465    1.47791470409221    2.90598376189883
