30
 energy: -45.986692298582 gnorm: 0.112205469973 xtb: 6.4.1 (79825abcba525fcdf90b791dcacef51065a7a4e7)
C         1.05931756811522    0.09038853055295   -0.29603233151608
C         2.53233044286245   -0.02392307927892   -0.10910546697956
C         3.19751272581188   -1.23872228329265   -0.11696261031614
N         2.69309875589164   -2.48669652124413   -0.14524236510497
C         4.57601072757853   -1.05085093713997    0.08930830342588
C         4.97476763000173    0.25364126885223    0.20126056176580
S         3.66273807253956    1.28540631988942    0.00184794308075
N         6.32776828415065    0.46020308043784    0.26098561503847
C         6.84361074841751    1.12407932471025    1.49485873864073
C         6.79783498948636   -0.00193548445964    2.54829168789659
C         7.64011880912707   -0.93802508763744    1.68538010647399
C         6.91840776347444   -0.95166845501149    0.32741419798306
C         5.73937865948767   -1.96316869168505    0.16879510881918
C         8.87942528302091   -0.12914391065768    1.37961043086784
O        10.04328142464414   -0.47913666190640    1.25088346792684
C         8.35121896233585    1.28002491686955    1.24243642700506
H         0.55263504426957   -0.07038674850526    0.66024613470760
H         0.69197035105283   -0.71649237490021   -0.93792309642651
H         0.82492327728377    1.07029032655038   -0.72589645098579
H         1.89474432131575   -2.65879398276641   -0.74817681812582
H         3.44275792577703   -3.16299584181480   -0.25411541466255
H         6.28522464748703    2.03785232847755    1.71264186299257
H         5.75937473856244   -0.31306728245510    2.70094554199191
H         7.21586256110615    0.35509165601744    3.49621740969621
H         7.69432900429847   -1.90499123455203    2.18161366624907
H         7.60466388569051   -1.14272044658504   -0.50723766466966
H         5.63190162812966   -2.64206766120335    1.02120235691456
H         5.89747596697076   -2.68476277810902   -0.64007374222016
H         8.58599178983042    1.83337820476560    0.33138992587006
H         8.87560228867653    1.88116295422569    1.98992286246589
