30
 energy: -45.976967889440 gnorm: 0.110201934371 xtb: 6.4.1 (79825abcba525fcdf90b791dcacef51065a7a4e7)
C         1.03770888144301   -0.06452511112824    0.14772029059987
C         2.52243895159210   -0.17931248051418    0.13444640412571
C         3.35307611719158   -0.73344504549824   -0.82536884174785
N         2.97912959842905   -1.41404998613459   -1.92519328967798
C         4.68309787989045   -0.43059764777636   -0.48269460749555
C         4.83306523538065    0.27702550040639    0.67920881256612
S         3.36422836714663    0.62276308390589    1.41995832704680
N         6.10133528886910    0.68747853635625    0.99522305716175
C         6.71342850935188    0.20828178799942    2.26997023455453
C         6.89041875917580   -1.29328078981409    1.96384930248248
C         7.78461044644596   -0.98744551962135    0.76501312196798
C         6.95497914014255   -0.00123947642876   -0.07417333952108
C         5.99859518865349   -0.64525303474038   -1.12725388721658
C         8.87675421720427   -0.23703042157470    1.49148648917572
O        10.07497627171587   -0.47705508179055    1.47479081457358
C         8.15506113380397    0.72091180309378    2.41076946890125
H         0.68797789860104   -0.41164433792233   -0.82913223371452
H         0.77753843656788    0.98488516909935    0.31823107606810
H         0.40369869710940   -0.75026500626486    0.72019148044549
H         2.17036553385495   -2.01939267837877   -1.82530230923146
H         3.74248650236326   -1.64847948190947   -2.55253054998772
H         6.04676007838842    0.42796771185807    3.10752436833831
H         5.97612608027536   -1.85182455301528    1.73889675206976
H         7.43269873463593   -1.89610534400024    2.70094738857555
H         8.19312513384246   -1.87046897365700    0.27757558842625
H         7.65268028402786    0.72816648858108   -0.50460580952075
H         6.20161248756116   -1.71379486620682   -1.25396444562832
H         5.95574031857284   -0.07926926174649   -2.06415698539110
H         8.38300717506681    1.77448143588499    2.23943499555289
H         8.51039795578988    0.40821546635363    3.39618183286031
