30
 energy: -45.976792532086 gnorm: 0.112754366475 xtb: 6.4.1 (79825abcba525fcdf90b791dcacef51065a7a4e7)
C         1.14777096090244    0.16201126439496   -0.28717544793550
C         2.61802281251939   -0.03401415032325   -0.15409940498335
C         3.20637392521462   -1.28741139248582   -0.12086369098731
N         2.59159798346614   -2.45480203545223   -0.38904744095028
C         4.60116739551502   -1.14651960068141   -0.00772333169669
C         4.94266132523982    0.16454085210707    0.18655140692748
S         3.72319082452376    1.29719959514585   -0.04946117843202
N         6.27614101850358    0.42698581818892    0.35917868884233
C         6.81353776586188    1.13800102580588    1.55706437566273
C         6.89698064661193   -0.03505272492025    2.55541698607505
C         7.70616230626242   -0.96335373703581    1.65330588061711
C         6.88056035316417   -0.98060632269726    0.35592076313943
C         5.73759986982752   -2.04325689428646    0.30284104361581
C         8.84003509921630   -0.00139218312134    1.38381219624655
O         9.99210035123200   -0.36563871744101    1.20024533790664
C         8.29002249155559    1.39645766960976    1.21926029140423
H         0.65846616730826   -0.57858571924072    0.35246608847969
H         0.84510181960216   -0.17281542099318   -1.28432488703582
H         0.81854097486875    1.15602438895995    0.03450280237602
H         1.58600623948501   -2.41796826710825   -0.25508547023618
H         2.95517691527265   -3.38389911721974   -0.19980693289710
H         6.26005685900950    2.03953584202708    1.83110724375647
H         5.88750755359259   -0.40217219195165    2.76682478935786
H         7.32184314558937    0.08904154339280    3.55784956436030
H         7.99633301924228   -1.92888139812653    2.06289996284166
H         7.44017369265300   -1.08396663764050   -0.58229115938001
H         5.54829131976695   -2.57478596344174    1.24129315060381
H         5.92537138731256   -2.84230485937439   -0.42257318656154
H         8.64661416507310    1.70001728229090    0.23335065534961
H         8.81095365593480    1.98247256600292    1.98103325450226
