30
 energy: -45.977393691036 gnorm: 0.103682448053 xtb: 6.4.1 (79825abcba525fcdf90b791dcacef51065a7a4e7)
C         1.09737218268070    0.15102611257567   -0.16547253595537
C         2.58308547614703    0.07588631748015   -0.23465130604396
C         3.29629621957302   -1.08557447358646   -0.48083321719884
N         2.75656323560691   -2.16161901802259   -1.08373397291407
C         4.65530622859047   -0.92722298483459   -0.15507771621544
C         4.89958198720727    0.24917373628094    0.50040712508907
S         3.51327277563624    1.17034554547893    0.73559922469907
N         6.20715331993294    0.61302272506204    0.68673140863566
C         6.75373397265389    0.72497987444983    2.07164410706586
C         6.82562011470540   -0.76951870543121    2.44718654558109
C         7.74942376913521   -1.16704684024781    1.29876137958338
C         6.97908517888526   -0.57596569321416    0.10614832013175
C         5.93929128344291   -1.61445356390160   -0.42184216914480
C         8.84149974845597   -0.12253598134265    1.29314847220047
O         9.97618952155633   -0.19374579493548    0.84477925605660
C         8.23332522569208    1.11064489264386    1.92001695015860
H         0.63988148316644    0.71463369985837   -0.98406469261139
H         0.83029616878429    0.74820323035908    0.71206629997219
H         0.64464771772283   -0.84624847789969   -0.14509321270307
H         1.75537644181681   -2.22605546893344   -1.23862179923727
H         3.29190868601532   -2.73196788764332   -1.73129123323815
H         6.17308539969546    1.31813952209758    2.78242853002063
H         5.87568691336766   -1.31368894564496    2.45058499192952
H         7.21035372862408   -0.94434831791145    3.45822227955275
H         8.10754062778428   -2.19010487688911    1.39527348891569
H         7.68302917466075   -0.23580867874303   -0.66381798632933
H         6.06709493438814   -2.49215012162317    0.22031685406673
H         6.12906275931679   -1.90149540560378   -1.46182070996372
H         8.47690038195277    2.05816052174368    1.43606535665340
H         8.70723267564554    1.23660360587549    2.89706705863567
