30
 energy: -45.973846124185 gnorm: 0.113415239144 xtb: 6.4.1 (79825abcba525fcdf90b791dcacef51065a7a4e7)
C         1.17233044452988    0.24781926112401   -0.31293492611763
C         2.60344416777520   -0.14354982472832   -0.18440690001355
C         3.22211880971087   -1.34799419843376    0.10683479345918
N         2.52191212480247   -2.48123433899022    0.30215572452940
C         4.61983950047369   -1.19781257634629    0.06298952843565
C         5.01216625466630    0.10902475331843   -0.04423079866214
S         3.73461166055478    1.16044442407701   -0.34104220622310
N         6.36351017367670    0.27361900793367    0.10947014203212
C         6.86002272995333    1.20846563008384    1.16246827997075
C         6.80032863470974    0.37614431698826    2.45992872213208
C         7.64600047052764   -0.77847942686335    1.92888697950148
C         6.86060127206776   -1.07464339523669    0.64026003981070
C         5.69490847115895   -2.10682385340044    0.52123833962615
C         8.84563663919395   -0.06733662657281    1.34681020747244
O         9.97002447007380   -0.54214991363953    1.28411233618200
C         8.37441404397231    1.30377690643783    0.92069713021043
H         1.05919851183001    1.31292187524183   -0.08977139833460
H         0.53409283664854   -0.29808388457301    0.38896751514556
H         0.75313276649705    0.12685691401312   -1.31770992073439
H         1.51782154650449   -2.33183779688496    0.30188627565336
H         3.08658889129202   -3.30481587232428    0.11755726477362
H         6.26359005886603    2.12055116591597    1.24354648659416
H         5.77927476989820    0.11320310755201    2.75457565420466
H         7.24399172699707    0.82027157651918    3.35808942193864
H         7.93740607976143   -1.65160452804214    2.50935691816265
H         7.61120223302683   -1.30007582590372   -0.12777021534781
H         5.30957288592440   -2.53468924439739    1.45263563620774
H         5.90359529461947   -2.97326798228235   -0.11569649162069
H         8.58825890996897    1.44770353570833   -0.13990617355878
H         8.95470536231304    1.98846337585262    1.54483430200896
