30
 energy: -45.971957915634 gnorm: 0.128372466786 xtb: 6.4.1 (79825abcba525fcdf90b791dcacef51065a7a4e7)
C         1.05594712961079    0.16651060383292   -0.18381000532045
C         2.52462406633698   -0.06666738343140   -0.10386122306749
C         3.20603292834452   -1.27217002473594   -0.07718432977720
N         2.69469884803315   -2.49808658693185   -0.29704552774814
C         4.59271451892659   -1.08712781226137    0.06763838634186
C         5.00169516143142    0.21868759971327    0.09629555847787
S         3.66136174112586    1.23231880579795    0.05405608814303
N         6.35924002213229    0.39825269452724    0.13720961619869
C         6.86933683459171    1.14451759600864    1.32555213233436
C         6.71192126715541    0.09498656211789    2.44511932349806
C         7.64311270316862   -0.88358107449850    1.73405669362191
C         6.90924744296783   -1.00924193765631    0.38840610425079
C         5.73023852057705   -2.02079973190657    0.23000423570711
C         8.87816191275426   -0.06394740281560    1.43991645344210
O        10.02043088974059   -0.49781146014686    1.46461944492302
C         8.38307610772198    1.33197947938280    1.14016056438774
H         0.69686191841344   -0.12479568776091    0.80777600986832
H         0.46285691075138   -0.32775070059946   -0.95968002819899
H         0.89679262691268    1.24809799636906   -0.11474535030118
H         1.84661192772494   -2.68057150553819   -0.82426951530697
H         3.21264628744228   -3.37064840240816   -0.25717916112410
H         6.29026396377801    2.05149174710068    1.51602031125630
H         5.65452765197560   -0.11619007641204    2.63440497449267
H         7.26047290527678    0.44293941587806    3.32761494057716
H         7.97166413684202   -1.86427628896113    2.07243646437870
H         7.59191186971267   -1.15937375426019   -0.45747909659322
H         5.51530593462433   -2.65654869769321    1.09526747198689
H         6.05165997963302   -2.68102061271401   -0.58286613447130
H         8.66896063987513    1.62605590081624    0.12867009896722
H         8.83503295041404    1.94353258812053    1.92553855680553
