30
 energy: -45.977245872222 gnorm: 0.112088321845 xtb: 6.4.1 (79825abcba525fcdf90b791dcacef51065a7a4e7)
C         1.08435315848680    0.23816823822758   -0.45527571293983
C         2.51715082741962   -0.02305069516020   -0.14442011585306
C         3.19629904539859   -1.22805976201904   -0.21496879802625
N         2.62598572687460   -2.38746735417712   -0.59337285263851
C         4.56920749952435   -1.02908460026713    0.01661553009288
C         4.94897946396487    0.22911760001421    0.39863743545137
S         3.59232534075658    1.22169046958918    0.40247540807239
N         6.28944037037273    0.51166031487656    0.41204549451014
C         6.79333783583727    0.93749365557943    1.75145629654825
C         6.92783705276979   -0.40428237070484    2.50063771683727
C         7.79893104791662   -1.05197878727314    1.42732193134664
C         6.94114189963520   -0.85276216865257    0.16651469285012
C         5.78288497773965   -1.87230392051691   -0.07302210930415
C         8.89589538163057   -0.01792156422437    1.32215874038822
O        10.07501233514740   -0.13673129223511    1.02350487347035
C         8.28440822061480    1.30675162518226    1.71573185973174
H         0.82564939727180    0.00048802841158   -1.49143441462237
H         0.84132960531939    1.26858535872243   -0.17741850247856
H         0.51287104714854   -0.46179732086112    0.16390744001808
H         1.66351595382755   -2.28707194190749   -0.90011375978104
H         3.04953850462206   -3.27886530055576   -0.35413294128232
H         6.07290650922263    1.60061236213998    2.23669634992968
H         5.97668481759670   -0.94619696879471    2.48864272672633
H         7.35332505487504   -0.37665558134371    3.51008079253204
H         8.14178057078504   -2.07425719143761    1.57432902814333
H         7.61638862158293   -0.87205625547412   -0.69821743782994
H         5.76274153890114   -2.70308925053065    0.64002992939781
H         5.84148930219308   -2.37112104270708   -1.04652536973406
H         8.54178996951607    2.14774563765470    1.06935149576975
H         8.87209499436111    1.50512324513402    2.61592836031804
