30
 energy: -45.979509279487 gnorm: 0.112613979139 xtb: 6.4.1 (79825abcba525fcdf90b791dcacef51065a7a4e7)
C         1.10603877141828    0.23973583602691   -0.18825403383104
C         2.55037223273192   -0.06418272438226    0.01001365447775
C         3.19901040306724   -1.27391246842905   -0.17461780444393
N         2.66686827016336   -2.51062097465502   -0.18166877180778
C         4.59058492699579   -1.16534902091353   -0.00189146410912
C         4.95931208393815    0.14926916465724    0.09329045946474
S         3.68352731933079    1.24373441085425    0.10894720328263
N         6.30733150795320    0.38132078649331    0.16971893428569
C         6.83959785430752    1.18593398728666    1.30926188637419
C         6.77470413033033    0.12530123791343    2.42755197588389
C         7.61205611839052   -0.90186644663839    1.66986446079278
C         6.93209644318821   -1.01175620283624    0.29483592888405
C         5.77155523045772   -2.04591967712358    0.14633552693040
C         8.85165974215644   -0.06869702366645    1.43991673158697
O        10.00750965835742   -0.45119267185788    1.54638140193700
C         8.36382757049175    1.33971252337454    1.19096346163376
H         0.55507937851247   -0.49759110647356    0.40321625140466
H         0.93458124126660   -0.00258400308488   -1.24177571392754
H         0.74922376591051    1.26961515389675   -0.07887843273097
H         1.67945973349935   -2.65795453098699   -0.36561034809600
H         3.27662191359658   -3.28269085230859   -0.43332645492944
H         6.24982433023615    2.08274037959340    1.51447182068136
H         5.82683715464804   -0.34625616398060    2.70627711147870
H         7.27982904224582    0.44464272164400    3.34605534741171
H         7.65014246008663   -1.89626132673617    2.11024869260278
H         7.71725462944727   -1.03965066942337   -0.47121927876929
H         5.60040889935387   -2.64722648718583    1.04533068200255
H         5.94952853566927   -2.66855462723251   -0.73718743108067
H         8.68246042642781    1.52218325111639    0.16310091919871
H         8.82329727271739    2.01048595790288    1.92173796705897
