30
 energy: -45.976156254525 gnorm: 0.120451727334 xtb: 6.4.1 (79825abcba525fcdf90b791dcacef51065a7a4e7)
C         1.00672494265810    0.06841182932576    0.09654333542120
C         2.48971782070224    0.06987785269704   -0.03949230112007
C         3.30540904205693   -0.76465048131455   -0.78546588987881
N         2.93866022402350   -1.51146760588105   -1.84397067448149
C         4.66305688917781   -0.61651181216410   -0.44938952862417
C         4.87565439715395    0.22229803538599    0.61100691504190
S         3.43985448838145    0.92473792420884    1.13137494236158
N         6.18269560925034    0.52399580171022    0.88933648487178
C         6.71276103791065    0.21011451988273    2.24940162239579
C         7.01114605956466   -1.29948817304240    2.14081140143251
C         7.96317609249571   -1.08327295979909    0.96726465320518
C         6.97832640911697   -0.42433720838960   -0.01304099050538
C         5.92776617556100   -1.33630218735110   -0.72229794989713
C         8.87305341992945    0.03422469082263    1.42222249466085
O        10.02184831316734    0.18831828140254    1.03472780704506
C         8.10886893130754    0.81374748907166    2.46718262915169
H         0.73022955229023    0.50454451783980    1.06110694222446
H         0.53584285800460   -0.91805476654983    0.04016738990873
H         0.50138237276795    0.66924366822739   -0.66736854770881
H         1.96107484554409   -1.40849880580145   -2.09742982964770
H         3.24775492404419   -2.47875259185291   -1.83739724026527
H         5.88944784813995    0.63970250888685    2.82543562744581
H         6.18235021694405   -1.89949136305642    1.75145358369452
H         7.40481067627195   -1.74468608478604    3.06146638142933
H         8.50462949293585   -1.92347365620801    0.53703096941799
H         7.57011749262685    0.12771989358870   -0.75405942816067
H         5.92029816812627   -2.28840393313269   -0.18146551189834
H         6.32692021073142   -1.55236062094760   -1.71927157804751
H         8.11346892126508    1.89876835525450    2.34872407447789
H         8.37138893355480    0.50963886571076    3.48388414722159
