30
 energy: -45.978262017594 gnorm: 0.109958306854 xtb: 6.4.1 (79825abcba525fcdf90b791dcacef51065a7a4e7)
C         1.13341330772779    0.09521014848187   -0.35666849512173
C         2.60949368901042   -0.09531249526053   -0.30505922110688
C         3.21431681445741   -1.29582698510059    0.02843772344034
N         2.51963601764128   -2.44031098540482    0.17073261982004
C         4.60380997558924   -1.10603981810618    0.13515991362381
C         4.97417105516428    0.20968535842188    0.06487336181263
S         3.69815947899889    1.25291686259494   -0.26556353271611
N         6.32314125904102    0.43081521154825    0.15557392442141
C         6.85587232960704    1.20580164246418    1.31525561943740
C         6.80677905559977    0.18905782485228    2.47437062971136
C         7.57563582283636   -0.87879746950955    1.70050596831914
C         6.91318281746415   -0.97375253766268    0.31585297001764
C         5.75421968840685   -2.02027375094805    0.31626917466011
C         8.85383595254288   -0.11324155140829    1.44793330606871
O        10.01337826446378   -0.47690447674280    1.57769299471018
C         8.36832872467116    1.26138221954896    1.05010466641528
H         0.64440741964387   -0.34887420565600    0.51551651852697
H         0.66269771851753   -0.31652903361475   -1.25495697969158
H         0.86887092625545    1.15569016742710   -0.28365599575153
H         1.71803320481342   -2.48072290320159    0.79227674378574
H         3.10727492286537   -3.25757037776303    0.30486160986045
H         6.36784171879543    2.15521178185775    1.54903358922943
H         5.83308729360005   -0.20957208280298    2.77690068854341
H         7.37645994552798    0.44504733066542    3.37476590920149
H         7.67951809154596   -1.88344485459368    2.10560116971037
H         7.66305890392110   -1.12028757396101   -0.47174171870857
H         5.73746565769544   -2.77285816514418    1.11149822431250
H         5.74780227429806   -2.68827955263765   -0.55188325955843
H         8.55535278315419    1.44384034933940   -0.00963817980930
H         8.99507665636476    1.87017698039597    1.70709534539561
