30
 energy: -45.980287376861 gnorm: 0.117629207253 xtb: 6.4.1 (79825abcba525fcdf90b791dcacef51065a7a4e7)
C         1.16602574550436    0.07510073169705   -0.67930237688370
C         2.54601248018743   -0.06060259860363   -0.13616619102859
C         3.18511508201675   -1.27804968949590    0.03007676873635
N         2.58029098156056   -2.41687641144075   -0.35713684145251
C         4.56896199206329   -1.12837796413279    0.23173530291698
C         4.91147868656063    0.19398537544827    0.31704531907765
S         3.63524494265056    1.26661731294260    0.10160569653396
N         6.26293160848740    0.40136324844276    0.40315600738335
C         6.82601217787981    1.09643446828782    1.59859913698929
C         6.95880966664673   -0.08034776345644    2.58717091272373
C         7.78014357354321   -0.94824353295376    1.63717632280127
C         6.90321139574371   -0.98999190334271    0.37449211501729
C         5.73225332466370   -2.02126342519914    0.43563627038904
C         8.92483962599781   -0.04776715564856    1.23409118398238
O        10.06091511945820   -0.32874173803475    0.88193719492654
C         8.29889617565689    1.32763098433815    1.22700866792384
H         0.49939900549323   -0.40412215412935    0.04388403438041
H         1.02705360514561   -0.23404276628599   -1.72004325161366
H         0.83970184679800    1.11954777903941   -0.62856336768274
H         1.57988733225996   -2.33473147058616   -0.20560457108430
H         3.01899223002346   -3.21256057788676    0.09635064526933
H         6.23558584306921    1.99597057007510    1.78948437360325
H         5.91033014615742   -0.28045143557277    2.83038913313482
H         7.53386267995692    0.23727009041960    3.46421796630445
H         8.07945484450368   -1.92875272816773    2.00217563742324
H         7.47713490596523   -1.12607190079191   -0.55081113122175
H         5.68919263173748   -2.48444738185058    1.42692817369930
H         5.87073419799870   -2.73191721552976   -0.38640742205320
H         8.34776893301517    1.82656196064976    0.25747104479839
H         8.74401058281954    1.88725769477974    2.05391367616425
