30
 energy: -45.975068572804 gnorm: 0.123513560193 xtb: 6.4.1 (79825abcba525fcdf90b791dcacef51065a7a4e7)
C         1.08417811648281   -0.05600564261859    0.25312790012018
C         2.56719559859560   -0.01291032160961    0.12437369335641
C         3.35345607847914   -0.53883705052165   -0.88728920604316
N         2.97024240090231   -1.15089102369234   -2.02360346387454
C         4.70910241292991   -0.40061286385604   -0.53912669622797
C         4.91204340106911    0.32627421001169    0.60266593108992
S         3.48583759630572    0.69652174380680    1.41172700451382
N         6.23469779690354    0.53461710977233    0.89253520151391
C         6.59856478747900    0.03002423539482    2.24983208422592
C         6.90082428425582   -1.45904542575775    1.98330537811146
C         7.91877830508026   -1.13172661688298    0.89383111003673
C         7.00838099720524   -0.36285126813631   -0.07834779258517
C         5.95381927740866   -1.06018826285694   -0.99487550926223
C         8.77793212428858   -0.04516443400496    1.49790206879498
O         9.96840482795222    0.06378776619742    1.24387287263717
C         7.93018597175207    0.77117462986860    2.44579045848038
H         0.55768323092986    0.84318568996453   -0.08049233106390
H         0.77866840432809   -0.15753798156920    1.29925386026998
H         0.75647167295284   -0.84696410861559   -0.43019088307427
H         2.14584796163929   -1.74321750479775   -2.01724424077800
H         3.77140771343683   -1.59314773234659   -2.46379220291118
H         5.78517897823592    0.23047359803711    2.95156508279497
H         6.01706042381548   -2.01304064459425    1.65080481739036
H         7.34770792787049   -1.93752069650224    2.86201751888670
H         8.47883536206191   -1.97205279426807    0.48837084493969
H         7.49026812787198    0.48987791244588   -0.57304951199762
H         5.90634086857430   -2.12506202686788   -0.74419065084629
H         6.28562325055571   -1.02064193393153   -2.03809351637496
H         7.83179353309554    1.82509166959757    2.17951678688243
H         8.26343965941997    0.68566285767947    3.48343707381841
