30
 energy: -45.978389890302 gnorm: 0.126076482508 xtb: 6.4.1 (79825abcba525fcdf90b791dcacef51065a7a4e7)
C         1.19935429580880    0.22804650420080   -0.06124485369617
C         2.65634093515181   -0.06572466770393    0.03183640491740
C         3.25255210096240   -1.30401501135146   -0.13973149009306
N         2.58958909507788   -2.47113740890893   -0.03495438584293
C         4.64687549812511   -1.12434644930422   -0.09872514200357
C         5.05065427063766    0.18326496377474   -0.07987375574879
S         3.76430920305547    1.26492166517050   -0.04729746296946
N         6.40126521886860    0.32704980968758    0.09907206654387
C         6.72960951715841    1.10575380103288    1.32995715806710
C         6.64516687748926    0.01052142481759    2.41303667033938
C         7.60817930920159   -0.95303406575960    1.72420429098593
C         6.97002969706594   -1.07638898612388    0.33040623574546
C         5.77870347892748   -2.05855254525089    0.09695612878376
C         8.79068899617520   -0.05039244762184    1.45854786235571
O         9.98852708437771   -0.29285389090777    1.46334760958299
C         8.24608735868435    1.34752831712088    1.27743463927963
H         0.47984974144487   -0.45864590913768    0.39461817622221
H         0.86688370641113    0.38973669504395   -1.09146041976814
H         1.18301049432174    1.21499198661265    0.41373183262128
H         1.59176599601861   -2.50295546992508   -0.21894885511748
H         3.09681776159723   -3.19375031558432   -0.53672390203382
H         6.14630957045682    2.00532882764942    1.54145555445138
H         5.64955890848157   -0.43229867179396    2.51877701851578
H         6.96183783494262    0.19795556105479    3.44520262260729
H         7.68120133780584   -1.90565897942718    2.24514917928057
H         7.80870690321775   -1.30076502488512   -0.34068839040762
H         5.66027107875164   -2.72096992374291    0.96080230816459
H         6.09674567491678   -2.68023883402707   -0.74703256595725
H         8.52114343248869    1.74244948736910    0.29778914547706
H         8.53014818671054    1.98186414639950    2.12124047286125
