30
 energy: -45.975901305438 gnorm: 0.126863679115 xtb: 6.4.1 (79825abcba525fcdf90b791dcacef51065a7a4e7)
C         1.11123052129022    0.22469338131254   -0.19539729445759
C         2.55842068848251   -0.10792805331608   -0.08235164284160
C         3.22679432541187   -1.32090212914175   -0.09774247580558
N         2.66985204450686   -2.50636239530819   -0.40946693254279
C         4.62618427043277   -1.20059555303996   -0.02470700340382
C         4.92532409401088    0.13147344112805    0.07197726290689
S         3.65010652071033    1.22642313831100    0.09710438853916
N         6.25381077567884    0.42977331462310    0.22358845798196
C         6.85141056654221    1.19927430145009    1.35496405126030
C         6.77655531688436    0.11753215527631    2.45221350836227
C         7.54370882410821   -0.94224583981249    1.66565882355527
C         6.98177044550606   -0.91804298811311    0.23430846080591
C         5.87063122269114   -1.99937426591292    0.04858106908291
C         8.80000158560629   -0.11896541150572    1.49951965897802
O         9.96064194538307   -0.49090933119401    1.59006440436161
C         8.37606047841925    1.29856165639727    1.19216585693098
H         0.58084263852090    0.05264365155648    0.74594853020503
H         0.60861203877594   -0.41195465101592   -0.93029760792556
H         0.99797225986441    1.29021444141289   -0.42292489200900
H         1.69812434487059   -2.41810849518063   -0.12933516894988
H         3.13189057314372   -3.30604365662890    0.01273356603087
H         6.28535272492507    2.11589789744937    1.53822707446626
H         5.73462505594360   -0.14853978498050    2.65737915400055
H         7.16760433367352    0.33192601141029    3.45316033271506
H         7.66076998639846   -1.91717448683369    2.13472261111875
H         7.74372694927007   -0.99112214002246   -0.55193182298684
H         5.90728984026666   -2.61729165914079    0.95184597000592
H         6.15950356693675   -2.68864578491791   -0.75230540859252
H         8.77392382950095    1.48668650795996    0.19334772294571
H         8.86455468002125    2.06021801359992    1.80562636469845
