30
 energy: -45.978118879836 gnorm: 0.114151318430 xtb: 6.4.1 (79825abcba525fcdf90b791dcacef51065a7a4e7)
C         1.08873081834020    0.14562950595463   -0.21705922540834
C         2.57055054237780    0.00088747205440   -0.18487633962207
C         3.22233280049150   -1.21286603185290   -0.32717387351104
N         2.60096157949567   -2.30467540109406   -0.81144961007688
C         4.57434448757837   -1.05081245156322    0.02482482768855
C         4.94130881235723    0.23148399902255    0.33189692412614
S         3.63800467931901    1.29092390352064    0.26325666271848
N         6.29065785129896    0.41504034682404    0.48159615596045
C         6.81301715559887    0.97324637047311    1.76409948475903
C         6.90659861515146   -0.31981306119079    2.60014108837640
C         7.81433942828414   -1.02434170767349    1.59516935951174
C         6.91043630072077   -0.97982972996953    0.35174577851487
C         5.73880540955957   -1.96500840787802    0.04335253890002
C         8.88462020990984   -0.00442745063958    1.28221833590612
O        10.05600105395451   -0.29752905430628    1.09357835706867
C         8.27548430860630    1.36169668882868    1.49723856003888
H         0.77145109894217    1.18096429981127   -0.06066288211331
H         0.69253093591578   -0.54496717441115    0.53402425462991
H         0.69723588845728   -0.13291589548449   -1.20147557343202
H         1.58672776389290   -2.34745610671279   -0.81555708078066
H         3.14836278379515   -3.15742756132800   -0.74520264526229
H         6.05919219905001    1.68178023533642    2.11614113490266
H         5.95826601817500   -0.86632798461162    2.57794626243062
H         7.25128559344909   -0.15673260088235    3.62745518522519
H         8.32200501050722   -1.98546238221036    1.64744481738752
H         7.47637658941944   -0.81224126530243   -0.57330435492956
H         5.67659748771128   -2.76678465384683    0.78654717196829
H         6.05984943946860   -2.40551811207390   -0.90682824673694
H         8.41733625055454    1.96903319896245    0.60150184743164
H         8.74769196567267    1.86103009347873    2.34739552384556
