30
 energy: -45.975905484719 gnorm: 0.121170246251 xtb: 6.4.1 (79825abcba525fcdf90b791dcacef51065a7a4e7)
C         1.11227419666357    0.19115605539723    0.03000967875801
C         2.58715704810605    0.00337008296780   -0.05503554063022
C         3.26277670149349   -1.09851704698773   -0.55267909733742
N         2.74448656828073   -2.17957283454788   -1.16535078773091
C         4.63835483600182   -0.90260061140354   -0.33473052696969
C         4.86902510376778    0.25553563402777    0.35718848361761
S         3.55428564832235    1.26547227568694    0.63506288625218
N         6.17916369453248    0.55182176969556    0.62662678340880
C         6.61999459744574    0.57925153354390    2.05287490766075
C         6.88160300327367   -0.90806057310843    2.36781852977429
C         7.86717006217725   -1.12828428640822    1.22305599530329
C         7.01924108351961   -0.59508395807857    0.05607774564522
C         5.94657298631714   -1.56872377249955   -0.52685537634150
C         8.89483723713529   -0.04656085959538    1.46272032688889
O        10.09182989518751   -0.03023985587396    1.21661288070432
C         8.06927260489340    1.08873778575516    2.02228750841409
H         0.61832196899534   -0.76179268495442   -0.18199094442792
H         0.73571621342918    0.99480985308336   -0.61059096181199
H         0.82280679579180    0.60993898691329    0.99993794672331
H         1.85303359495018   -2.62033138991894   -0.96148615613765
H         3.39255511011525   -2.86496001617090   -1.54148183391905
H         5.96062973130660    1.15543084361939    2.70667992565256
H         5.94397325970336   -1.45796708859580    2.23759113508465
H         7.22301954043198   -1.12326380658868    3.38659275359346
H         8.25889707088514   -2.12766763741590    1.04419044272762
H         7.64834742877061   -0.28850405903752   -0.78910035779416
H         6.19428609097519   -2.53292643206540   -0.07078006779624
H         6.09480165846154   -1.63618787578609   -1.61010901176133
H         8.21085956114521    2.01937872876295    1.46985250163237
H         8.24009151879304    1.22653431668456    3.09322812131224
