30
 energy: -45.974378031775 gnorm: 0.125881505239 xtb: 6.4.1 (79825abcba525fcdf90b791dcacef51065a7a4e7)
C         1.03822497679491    0.21321434304584    0.09958875713685
C         2.49747222320467   -0.07513363810465    0.02727955272847
C         3.32190509739000   -0.72819585270254   -0.87387885423218
N         2.88998961490089   -1.23819117994836   -2.04265029496837
C         4.63828969821414   -0.69980330324936   -0.37948476976286
C         4.84302746600324    0.13174461873545    0.68815317289015
S         3.38601085705236    0.72033702203325    1.28513528467001
N         6.13235692721788    0.46055923740172    1.01427601404905
C         6.62627810161296   -0.01354388702449    2.34112796365117
C         7.14139767926059   -1.43788970728873    2.04852490161291
C         7.98929028684937   -1.03489601955691    0.84478224330840
C         6.98920613146974   -0.26110540905998   -0.03054863960489
C         5.97567599593178   -1.09408129677683   -0.87749031575674
C         8.89104757241802    0.01257192671481    1.45577249543119
O        10.06826006609914    0.24837728957787    1.22731407370204
C         8.00911703089755    0.63355770036684    2.51414416805134
H         0.68841516296206    0.79657732556802   -0.75736229155362
H         0.75652399837273    0.75392955314258    1.00859708716448
H         0.51428568509434   -0.73462905717935    0.26394165833032
H         1.94388062961244   -1.60411346427092   -2.08132797875437
H         3.44981494981117   -1.82574600737315   -2.65305828565353
H         5.86171760304092    0.16884071005358    3.10033065713521
H         6.33992062511285   -2.15106974809118    1.83054635125795
H         7.74779942501224   -1.82925175091531    2.87308010061038
H         8.43427629793713   -1.76867325138071    0.17562722264304
H         7.42731099018023    0.62265037638051   -0.51131043288511
H         6.23975299451875   -2.15652394463713   -0.90055980976287
H         6.10678842265454   -0.75190636402042   -1.90981169826413
H         7.89337643711296    1.71449540941601    2.41666774917272
H         8.31259813824039    0.30849691143135    3.51280100778418
