30
 energy: -45.977068453585 gnorm: 0.122833189873 xtb: 6.4.1 (79825abcba525fcdf90b791dcacef51065a7a4e7)
C         1.13548754501087    0.19161440611984    0.12154769116572
C         2.59059441139615   -0.05902217808781   -0.07241367991373
C         3.25034485433028   -1.27663001950762   -0.09307228890586
N         2.63577439792240   -2.47113145100203   -0.00283723574492
C         4.64346163627942   -1.08758615870978   -0.13292330596629
C         5.03953213127564    0.22153292552461   -0.18367426476784
S         3.71404045353544    1.25530360138725   -0.19444750927137
N         6.36199012802830    0.42224398845267    0.11240940491728
C         6.75733835992606    1.07962899856823    1.39335152910428
C         6.62542038131907   -0.11076572513872    2.36560859234209
C         7.62184594698616   -1.00192041622399    1.62851865102783
C         7.01586759013044   -0.95921422786646    0.21568787879505
C         5.82421172317496   -1.95766488322561    0.06921280775210
C         8.81659968782454   -0.08171597315667    1.53129895377110
O        10.00388655277455   -0.37017658892263    1.50360331993085
C         8.27389486111463    1.32457672430057    1.42458565085830
H         0.72904997659938    0.26191853340791    1.13491347550130
H         0.46026136033455   -0.50667757241376   -0.38291483444246
H         0.96511795543535    1.15857658984852   -0.36413708597406
H         1.74060436315278   -2.62705992966769   -0.45546756018902
H         3.28675734135118   -3.22894799444581   -0.18493137300988
H         6.20997956248265    1.98158885193104    1.67808368512172
H         5.57431036035620   -0.41542733393383    2.39484752413004
H         7.00120436260859    0.16569354229772    3.35714037477036
H         7.79362282080375   -1.98022427795639    2.07306817401688
H         7.88804380305068   -1.11097133560260   -0.43267197021805
H         5.84491930653678   -2.56537844520467    0.97987666463456
H         5.95702612511652   -2.62096986265793   -0.79238363471705
H         8.71164622051364    1.83761329142724    0.56639505553716
H         8.36791333291429    1.91970335834195    2.33676194926051
