30
 energy: -45.978922371106 gnorm: 0.114216044869 xtb: 6.4.1 (79825abcba525fcdf90b791dcacef51065a7a4e7)
C         1.13630979445851    0.23641279389114   -0.46423999619799
C         2.55309525603831   -0.04781789534208   -0.10409064630121
C         3.22955169827271   -1.24431891428900   -0.27455545982809
N         2.62399080145632   -2.36602334056992   -0.70785448348615
C         4.61419067626638   -1.06339405600721   -0.10680227786902
C         4.91611563554450    0.19214508408851    0.34674270106386
S         3.59912835365442    1.23481660194413    0.41082586352287
N         6.23632083506769    0.53326367474072    0.47918871316803
C         6.74519693126956    0.88914243808722    1.83700439148902
C         6.94129275708313   -0.46634456684723    2.54688265823799
C         7.77437007627715   -1.06114198803472    1.41439849517376
C         6.93490575596187   -0.79082223791984    0.15449720517766
C         5.84532317474437   -1.88526275205374   -0.07661340385729
C         8.85952273208105   -0.01003269336756    1.37865848405897
O        10.02945078778774   -0.23564057839418    1.10663624401273
C         8.19901569322312    1.32987334556225    1.60660072360887
H         1.01078701098818    0.49251189831651   -1.52050778944928
H         0.91198144038174    1.12758806319894    0.13032534190821
H         0.49788640584320   -0.55035606333957   -0.04789674052343
H         1.64572090409426   -2.22763554831986   -0.47471482279294
H         2.92824931708215   -3.18618183407117   -0.19211251462943
H         6.03385340686792    1.49977241608106    2.39854428060246
H         6.01804686351282   -1.02929550279378    2.71778950661973
H         7.52191895470864   -0.39584542751805    3.47353345133974
H         8.30727157353120   -2.00911557167893    1.45404815153593
H         7.53843926070119   -0.68922233440353   -0.75628093553986
H         5.86343278155767   -2.60809206578035    0.74572658553302
H         6.08260547886463   -2.44996849586858   -0.98477975602845
H         8.27095390804528    1.78937785360854    0.61917762919998
H         8.73624264779941    1.98892768050780    2.29370724161343
