30
 energy: -45.980410055133 gnorm: 0.125907587570 xtb: 6.4.1 (79825abcba525fcdf90b791dcacef51065a7a4e7)
C         1.03354306520426   -0.11937692722745    0.14438064643226
C         2.52173178826737   -0.10355896233414    0.09127865096290
C         3.35381725166426   -0.72780161452702   -0.82317265382277
N         2.95188279045542   -1.39911640675135   -1.91882681238607
C         4.69312854829116   -0.48554132007343   -0.46869379333873
C         4.87737566291770    0.26214058670728    0.66279418611170
S         3.40672272167817    0.77458698020438    1.29549054208142
N         6.15338114984669    0.64645043063665    0.98053868106550
C         6.66605759454480    0.16842900542707    2.29884303760876
C         6.90565616709409   -1.32996939743225    2.02113726034138
C         7.79287298925734   -1.06163787142321    0.80822066100079
C         6.99455943313243   -0.08425126135993   -0.07071918967668
C         6.01400828365700   -0.77010845651388   -1.07397474943719
C         8.83687327923991   -0.19682028902888    1.47591694727301
O        10.05441925745869   -0.21429828825067    1.37149959096484
C         8.11263032802036    0.64570574679896    2.50022033697560
H         0.65884316011734    0.89876333520985    0.00283644968873
H         0.81597658407828   -0.45539928429750    1.16309469837092
H         0.68671327565688   -0.72122893587964   -0.70262267278777
H         1.97482887244099   -1.57630382720030   -2.12974754281228
H         3.27277128345333   -2.35859065639671   -2.00636382074891
H         5.98187936661974    0.48501494998197    3.08996826114581
H         5.97983725517107   -1.87298800357623    1.80550789446737
H         7.39369246170899   -1.86820497568999    2.84144308191642
H         8.27319499181441   -1.90970249203022    0.32418843861274
H         7.71768677539099    0.54407456125384   -0.60586923095025
H         6.17100038394962   -1.82023222694975   -1.34164392163203
H         6.15074557612546   -0.28946908303191   -2.04878257561461
H         8.23276249370745    1.72255562775602    2.36874233302445
H         8.48196931774626    0.43933257954446    3.50822808006353
