30
 energy: -45.981658135711 gnorm: 0.114017703542 xtb: 6.4.1 (79825abcba525fcdf90b791dcacef51065a7a4e7)
C         1.10823839531114    0.04425673833683   -0.04611355035829
C         2.59331620381862    0.01046693374134   -0.15183887923986
C         3.24207027233505   -1.20773700342500   -0.03623787041131
N         2.65550504030965   -2.41959917999680   -0.03827930474315
C         4.63853753538827   -1.05335570191911   -0.10062449646583
C         5.05643740467443    0.24990027672753   -0.08949679498293
S         3.74680186676980    1.30356346600715   -0.10885393413160
N         6.38681297979208    0.47613475715351    0.14664809457482
C         6.79704325850065    1.14668447721025    1.41603463459039
C         6.67398141504244   -0.02406906063392    2.41298883785621
C         7.57123912055393   -0.98727293942725    1.64001466612591
C         6.93446905559762   -0.95141380720413    0.24059965142949
C         5.77380834588142   -1.98484010581444    0.08795903419207
C         8.79836287794487   -0.11207734903415    1.53109107485274
O         9.96937895818070   -0.44070675715113    1.65088558847848
C         8.31944732464174    1.29780585224561    1.27332245996596
H         0.78116233158865   -0.13177629903567    0.98300159923370
H         0.64410229522467   -0.72791440037202   -0.66768730552110
H         0.63782599407803    0.95969901567089   -0.42109219023719
H         1.71389576611939   -2.53846122601064   -0.39850295819075
H         3.25514060171075   -3.23274248882948   -0.14054434111194
H         6.16418463963930    2.01582168178076    1.61172856844524
H         5.66392111697516   -0.34955841835925    2.68195121399947
H         7.15518014684525    0.15826896286241    3.38044903239838
H         7.77264325434713   -1.99647294530862    1.99379671837789
H         7.70855919608787   -1.13113338397071   -0.51608878059904
H         5.81699760413329   -2.64657923929209    0.95933108056891
H         5.93857029532133   -2.66334749518596   -0.75610424333778
H         8.60206721188372    1.55375241778231    0.25060978142542
H         8.65877685400299    2.08903845893859    1.94703398256341
