30
 energy: -45.976657223184 gnorm: 0.127887127747 xtb: 6.4.1 (79825abcba525fcdf90b791dcacef51065a7a4e7)
C         1.00487120723433    0.00130348111780    0.20131531181183
C         2.48746814012324   -0.13213578598996    0.15800238974303
C         3.35599784030809   -0.64344985625376   -0.79198727979104
N         2.98332143822593   -1.50085036568622   -1.76082655558982
C         4.71334703089250   -0.38382709640005   -0.53064602300749
C         4.90834668956233    0.38041480235912    0.58790201733160
S         3.44299501701584    0.67802988120391    1.35594875676419
N         6.21905974482078    0.65751741123041    0.87441736452576
C         6.62988534420031    0.11176582534991    2.20206397431618
C         6.84233361724609   -1.37695679945291    1.85812150453388
C         7.85429308584006   -1.01575366593932    0.77378184232370
C         7.08279895210401   -0.06926785317997   -0.16114370958859
C         6.03306305687590   -0.79321929853398   -1.06244899782548
C         8.84243227700474   -0.20710951243516    1.58207631812084
O        10.05599510074118   -0.35077981649535    1.56623995723611
C         8.00796002536810    0.76753103084267    2.38039159383377
H         0.63685311736217    0.36765230718450    1.16432912304122
H         0.54506572840997   -0.95555669164066   -0.06518432271927
H         0.54529457240697    0.70324676427316   -0.50295475025159
H         2.09425809697436   -1.93525400755123   -1.53416130528034
H         3.67275189002818   -2.17783636970875   -2.07323428287323
H         5.90852890564404    0.40936652020339    2.96710275703606
H         5.93564936505348   -1.90482409621002    1.54541449982655
H         7.25226593150950   -1.86007156501128    2.75217643744401
H         8.22830987801157   -1.88585351237641    0.23782688674503
H         7.61563729109037    0.66891552760599   -0.77372893613515
H         6.16944201460378   -1.87970042632823   -1.06602316714910
H         6.27096872557579   -0.55076869040517   -2.10388079708975
H         8.04235493244382    1.77703841742455    1.96682697459234
H         8.35585652706056    0.75123563181991    3.41662673429780
