30
 energy: -45.979255508726 gnorm: 0.124219068256 xtb: 6.4.1 (79825abcba525fcdf90b791dcacef51065a7a4e7)
C         0.98749792087878    0.04727388672290   -0.06208204036012
C         2.46918535193719    0.03694617881334    0.08715399931224
C         3.34597233651536   -0.70382364450506   -0.68794014111692
N         3.03649011735803   -1.53736913858770   -1.69892754542278
C         4.69571036475840   -0.57771549476902   -0.31323489076218
C         4.83690842373200    0.23078998327945    0.78203779983183
S         3.35932956027391    0.75097506088191    1.39186912728596
N         6.13716172459411    0.57857355939334    1.03744640261378
C         6.69037412642620    0.03043581610576    2.31132592741937
C         6.98910558178252   -1.43977693175944    1.95221627853391
C         7.88709589317141   -1.09753576277588    0.76612751513101
C         6.97110387007525   -0.14709924062580   -0.02301975153231
C         5.98246458874679   -0.89267384561422   -0.97439414546037
C         8.83686185749654   -0.16741065878789    1.48479036378183
O         9.98750228133618    0.02923432395947    1.12287319252489
C         8.08247606218663    0.65059753548799    2.50720910022140
H         0.59049016447380    0.66264678056447   -0.87494452562998
H         0.49261457740971    0.31441421735265    0.87693395717157
H         0.76189720987442   -0.92745976153812   -0.50809773317167
H         2.29815867607057   -1.21552565126741   -2.31682780980009
H         3.84973458259471   -1.71415202427572   -2.28082463899247
H         5.94813544284470    0.21113959537019    3.09275635048801
H         6.03059848967481   -1.87362216706483    1.64964669562871
H         7.54093852066883   -1.94795484540646    2.75097420053033
H         8.34118126296272   -1.94318364185861    0.25339351019534
H         7.60250539853730    0.54116911559152   -0.59896318306436
H         6.17174558203933   -1.96887372361631   -1.04524442947894
H         6.02409087019559   -0.56768629509065   -2.01967493800719
H         8.13063435426392    1.70685301370871    2.23641579985288
H         8.49984311124153    0.55905362961518    3.51344229544447
