30
 energy: -45.974004371331 gnorm: 0.119083787690 xtb: 6.4.1 (79825abcba525fcdf90b791dcacef51065a7a4e7)
C         1.05407705860853    0.05963526305596    0.04761949340662
C         2.54157463255876    0.10034204970084   -0.01128416389288
C         3.32264456591243   -0.72538970808387   -0.80271523021026
N         3.01044595385009   -1.60037858954328   -1.77718913097338
C         4.66942423504602   -0.53632284558060   -0.44419284583019
C         4.85085667264068    0.38790055719914    0.54884978051527
S         3.41839099442939    0.98836785258889    1.19166171240295
N         6.13793461839224    0.44507737481830    1.01468967772890
C         6.67818810130516    0.01182040575809    2.33744535841629
C         7.07277799351699   -1.45605284267544    2.07405838584426
C         7.95793620896307   -1.11358083831309    0.87842883077306
C         6.96491410248646   -0.34192477909108   -0.00677080748584
C         5.92983173456145   -1.25666820000920   -0.73495438596946
C         8.80115466003211   -0.00073453068838    1.45654657488222
O         9.87300562862734    0.36176035647703    0.99463789147737
C         8.04095165755169    0.68258855223708    2.56953191547694
H         0.70256896311934   -0.85883535127757    0.52709646490743
H         0.65585425979382   -0.08254945553152   -0.96194805398561
H         0.61430956871764    1.00898103564310    0.37208603021137
H         2.06940675155397   -1.75095791258732   -2.12688669652128
H         3.71354912810279   -1.69153652542667   -2.50420986427539
H         5.96288839261774    0.07954772794757    3.16083164194421
H         6.13938559222869   -2.00066931721490    1.89890871012182
H         7.68827090533384   -1.97832019836743    2.81512780857843
H         8.51265067102692   -1.89109401499259    0.35691646877309
H         7.35465161139014    0.43428060714612   -0.67736899468993
H         5.76778368464276   -2.20212123297126   -0.20683298049544
H         6.27407564666586   -1.41561293559981   -1.76266752655976
H         8.10172819163827    1.77210816144050    2.54550888626832
H         8.46943833060056    0.34426401471386    3.51664144624876
