30
 energy: -45.971727765291 gnorm: 0.130033449234 xtb: 6.4.1 (79825abcba525fcdf90b791dcacef51065a7a4e7)
C         1.14018618699732    0.26357005631509   -0.37296244922076
C         2.57298871027422   -0.05623453219109   -0.12280719638278
C         3.14818798642797   -1.28453024830810    0.15773103169985
N         2.46492297253078   -2.44462286172422    0.16036073383031
C         4.54337865801119   -1.17679046465910    0.29892297045823
C         5.04320314357015    0.05470580310546   -0.02792972275898
S         3.80025842304426    1.15723456903479   -0.28336032072250
N         6.41064346731263    0.12981511721212    0.00828020257631
C         6.87565270885778    1.14948153932549    0.99484737072596
C         6.75233621969065    0.40735587155256    2.34160951817138
C         7.61374169339855   -0.75309119197903    1.85001477144537
C         6.93741604191488   -1.20484674687738    0.54478494179645
C         5.64937605961737   -2.07270888850913    0.70655844143445
C         8.85796143814533   -0.04065473704331    1.37250465743938
O         9.98514780121858   -0.50663615389336    1.44956888133126
C         8.39509066500982    1.28308175208383    0.80943471470596
H         0.67653339100041   -0.71833723333443   -0.23906501535268
H         0.88082886095600    0.44119310416758   -1.42139382712414
H         0.73283605926539    1.10258667918241    0.20153589959021
H         1.55793936569866   -2.33166179581775    0.60210479415746
H         3.07379209752127   -3.14630610174337    0.57041194466493
H         6.35284738761589    2.09048778507269    0.80673180847137
H         5.79073523301805   -0.05493340840450    2.58679934389727
H         7.10878032454093    0.97376747373518    3.20930998474240
H         7.91581778014832   -1.51683184375762    2.56391971738239
H         7.57992984769023   -1.48974860699126   -0.29788877582915
H         5.68862088040884   -2.21754568417935    1.79124059563548
H         5.79576560780297   -3.00727124824208    0.15417733209327
H         8.58746715200397    1.50650845478952   -0.24146759432092
H         8.79568651009577    2.04037189268654    1.48848949431255
