30
 energy: -45.973663679338 gnorm: 0.124002798120 xtb: 6.4.1 (79825abcba525fcdf90b791dcacef51065a7a4e7)
C         1.05410215229814    0.23412349775799   -0.37032118273723
C         2.48571596379317   -0.09630533456061   -0.12726892152251
C         3.18575163209754   -1.28922711031104   -0.19906031546321
N         2.66477806898682   -2.52893340200411   -0.13282026122801
C         4.56437893384246   -1.09593027322582    0.00124735035159
C         4.93583193047936    0.20741959414812    0.19240717174364
S         3.59401768727232    1.21613440189050    0.10434445331544
N         6.28890947167652    0.41767038151226    0.23508510977534
C         6.86471235453436    1.15717421789051    1.39734717866010
C         6.86308003393818    0.08052955701564    2.50213646167527
C         7.70658348956734   -0.91627917869379    1.71144281567507
C         6.92262511672023   -0.96841853144910    0.38939321339109
C         5.75038911588403   -1.97054323348163    0.14442134545962
C         8.96603216043548   -0.10772365991169    1.50241790772059
O        10.11807732214693   -0.51354911062272    1.54394292403202
C         8.37799837444038    1.23723706443182    1.14342998439534
H         0.54423207904752   -0.41273705842849    0.34985122700583
H         0.72679470751655    0.26662612553638   -1.41427422146628
H         0.76041726918493    1.20156739739326    0.05126257575654
H         1.70521651787326   -2.54315818654988   -0.46381357045830
H         3.20425399339825   -3.33342951225318   -0.43773783332100
H         6.29648393973235    2.08966925991154    1.43947902671630
H         5.81952462946570   -0.21971200494861    2.64125155940449
H         7.31193063467161    0.33007433271098    3.47014428602252
H         8.01095040704438   -1.86727847016023    2.14407562793447
H         7.63248691669402   -1.03476802586736   -0.44474468236971
H         5.55637519030536   -2.68432817095904    0.95183876809392
H         5.97128001748241   -2.58621857899329   -0.73427807855361
H         8.63077610762625    1.48116492836831    0.11002469874101
H         8.77142973602295    2.11966385130604    1.65491362473673
