30
 energy: -45.973210509028 gnorm: 0.116632170388 xtb: 6.4.1 (79825abcba525fcdf90b791dcacef51065a7a4e7)
C         1.09931331625093   -0.20605338932393    0.41529492353727
C         2.57149487973439   -0.17755951428925    0.19248278695445
C         3.42726312195295   -0.79474533219642   -0.70473996205599
N         3.04398406928086   -1.75735603898638   -1.56447867855861
C         4.78284155552422   -0.46095487466240   -0.53417889404428
C         4.98479098323249    0.48512208823786    0.43401275300037
S         3.50772209932072    1.00734659424736    1.04333625075032
N         6.30555212269560    0.71376965358529    0.71713093932541
C         6.51364071785820    0.28188564871481    2.13114767275809
C         6.63712697619585   -1.24726702173080    1.96937932878761
C         7.80043640874575   -1.13586474119956    0.98722716778237
C         7.10526224597264   -0.30329804722157   -0.10304342230908
C         6.06158967315514   -1.04902859553260   -0.99356903643113
C         8.76751807612329   -0.14736490999415    1.59655919289332
O         9.92573789509526   -0.00086671195059    1.23504598223562
C         7.93730548718382    0.67758911543797    2.55247410471521
H         0.55641956696041    0.27227715649549   -0.40538201578219
H         0.93923390099209    0.37383956817942    1.32969268135004
H         0.60166223073209   -1.18135687874647    0.38276991919656
H         2.08009352412584   -1.66540018765844   -1.86939903017214
H         3.60173549685718   -1.72354639165999   -2.41241336355034
H         5.74678734041953    0.66279899998206    2.81015175151040
H         5.71958363921185   -1.65827367488847    1.53614308661053
H         6.84259041508411   -1.84236432027121    2.86627541113424
H         8.39934493577429   -1.98404609726335    0.66148650355099
H         7.90617022786958    0.16446041446613   -0.68942255022784
H         6.11997219479378   -2.13266040437123   -0.84732671286772
H         6.24143524185550   -0.98625841961921   -2.07230768321535
H         8.24567294863401    1.72381398270804    2.51189204988292
H         7.98223125219543    0.31848919779161    3.58403103785904
