30
 energy: -45.969956292389 gnorm: 0.143188797544 xtb: 6.4.1 (79825abcba525fcdf90b791dcacef51065a7a4e7)
C         1.10698273436327    0.12486224060700   -0.20325320391055
C         2.58860694419934    0.00750453493229   -0.10948447584938
C         3.21226671465211   -1.22747905263483   -0.04521700421488
N         2.52050199366032   -2.37794095425744    0.05760254779713
C         4.61051667934334   -1.14092581904192    0.07930460699268
C         5.06202274117170    0.14786627744886   -0.01233311414868
S         3.79520292195668    1.25130423906546   -0.06993743351881
N         6.40567709698819    0.39959783274821    0.07749896835330
C         6.77922143559043    1.04712700233870    1.36995345058412
C         6.66330347319615   -0.10732654740024    2.38657814683869
C         7.64327663254803   -0.94381168535571    1.56787955045809
C         7.02213019429855   -1.00021338626332    0.16213408154932
C         5.81563609093165   -1.99010648128911    0.21585562039913
C         8.82854420561060   -0.00956853181360    1.49045284532874
O         9.98929445964761   -0.38314096145663    1.57248430255007
C         8.27612167631883    1.39331905284017    1.38890886645147
H         0.52518591900380   -0.49680133068229    0.48383576253932
H         0.68795497453076    0.18299210617586   -1.21273880762587
H         0.92617409250946    1.10810613181537    0.24448672803232
H         1.54930174367750   -2.47822891010081   -0.22029976021970
H         3.02382247325094   -3.12165812344279   -0.41650318452544
H         6.16505536942665    1.91801675171738    1.61193839283832
H         5.63816517202827   -0.48730578474673    2.32989368158658
H         7.04282333983517    0.02919558463394    3.40545251636461
H         7.92917062612197   -1.91929130071521    1.95635626810791
H         7.70805480031694   -1.17332649611151   -0.67669328112076
H         5.84714966423974   -2.65066589222543    1.08862214132088
H         6.04053936889255   -2.67185843370674   -0.61154657108555
H         8.48275152343549    1.68169742675906    0.35669479642809
H         8.58059985074739    2.13016569267540    2.13685997043703
