30
 energy: -45.978535015274 gnorm: 0.111642008193 xtb: 6.4.1 (79825abcba525fcdf90b791dcacef51065a7a4e7)
C         1.15444296821002    0.13745557563933   -0.59806797936031
C         2.57253890422525   -0.08228376012815   -0.19995460426936
C         3.25056882645684   -1.28639588546384   -0.10691849952597
N         2.64744153543392   -2.48304630378656   -0.23706514364797
C         4.59339782167361   -1.04944811452075    0.23770609812182
C         4.94928397208665    0.26874679449338    0.33229744223400
S         3.61202461338578    1.26607630584902    0.12542229514604
N         6.30664004583909    0.45423197896528    0.32726101403942
C         6.85526287705858    1.16646108877634    1.51932254046579
C         6.89816378649027    0.02322336756984    2.55416203166290
C         7.66124484596419   -0.96436953203441    1.67513431062419
C         6.85918086207245   -0.97407859151720    0.36298970128401
C         5.70351666819929   -2.02394447226261    0.33800449647445
C         8.85587117364053   -0.11987897901069    1.29649460329165
O        10.01754084665323   -0.45004086977270    1.10902895396832
C         8.35635278029967    1.30435737558320    1.22161077760718
H         0.54980803667217   -0.68875634085877   -0.21227678832888
H         0.92851450869331    0.27606779388904   -1.66003197001463
H         0.76457179572049    1.06463536769981   -0.16416767462556
H         1.64038122844662   -2.50538207978206   -0.36295377794367
H         3.20149504759757   -3.33316891095563   -0.27629847108591
H         6.24038818180485    2.02124062600146    1.81170359381810
H         5.90630034649618   -0.27629878704253    2.90771440832248
H         7.48272884142797    0.26643475104571    3.44853920164366
H         7.96466008891707   -1.89320904064407    2.15409816666535
H         7.51946334319326   -1.03163461156057   -0.51154240523635
H         5.65805951122242   -2.58368226233726    1.27804730782304
H         5.89267454766008   -2.67807976055678   -0.52006771541875
H         8.37807805430345    1.49514466702444    0.14715645620221
H         8.97347244451872    1.94757726593649    1.85447117045307
