30
 energy: -45.976208163256 gnorm: 0.119264557662 xtb: 6.4.1 (79825abcba525fcdf90b791dcacef51065a7a4e7)
C         1.14903744315141    0.18187449492587    0.03508166545908
C         2.58895237921902   -0.07654412461069   -0.24355876361346
C         3.23387485503591   -1.29678379356883   -0.12798874494786
N         2.63113131500956   -2.49818167928081   -0.05042440331768
C         4.62643939302624   -1.10148487037894   -0.15486602052513
C         4.98348615465961    0.21406288105691   -0.03201650417977
S         3.68204782023117    1.26729578424163   -0.18263117931584
N         6.31987782227444    0.43557237598339    0.17252318264910
C         6.82567427322118    1.17075531821157    1.36957957106918
C         6.71959019158678    0.03592644417035    2.40911569036392
C         7.61628332689325   -0.95799323179734    1.67536690986247
C         6.89851495222080   -0.97560660189393    0.31535855920598
C         5.77875239242150   -2.01783058378999    0.00182491742992
C         8.84145013915116   -0.08227539063292    1.54987214980028
O         9.99854034439735   -0.45067141753657    1.68790584135178
C         8.35316726090469    1.32883856777875    1.31768119863774
H         0.86335768221363   -0.19660319737718    1.02107663606842
H         0.42427589216263   -0.29558706590027   -0.63183337932658
H         0.85553245929428    1.23175899605140   -0.07229025589521
H         1.72519764241611   -2.64946756243444   -0.48275998662198
H         3.25695194306053   -3.27290091582413    0.14802365633307
H         6.18188004939402    2.05039866946792    1.44679485723117
H         5.73225056283920   -0.37468714716804    2.64377038192645
H         7.18047898667473    0.27546263051227    3.37399005390673
H         7.91334454564744   -1.96682495722041    1.95505101906993
H         7.66061652419631   -1.05179764797078   -0.47044559819776
H         5.68488228551745   -2.72403111705676    0.83340320255775
H         6.05424795101142   -2.64732861572001   -0.85128470322543
H         8.75543103268121    1.78154411799879    0.40962535590843
H         8.62164858034472    1.96269335586495    2.16693185234717
