30
 energy: -45.973386743408 gnorm: 0.120967304822 xtb: 6.4.1 (79825abcba525fcdf90b791dcacef51065a7a4e7)
C         1.06714141914062    0.05581577534962    0.06649514228907
C         2.54730515243017   -0.10652337645730    0.08966920559357
C         3.34512156386005   -0.96446781331391   -0.64903683527459
N         2.91952173306574   -2.01812391834690   -1.37108010690200
C         4.69245072869999   -0.76043898921458   -0.30093280119166
C         4.88568174945485    0.38331800106621    0.42551195930388
S         3.46375556351735    0.91962026838644    1.14400472712778
N         6.19740986589548    0.71481052994360    0.64075059178066
C         6.66757303216998    0.58107967462099    2.05154137943503
C         6.72183110455782   -0.94742529185292    2.25267411133339
C         7.73357065298915   -1.10032541094470    1.11983395773350
C         7.06824859811326   -0.34423851421482   -0.04240678740722
C         6.01092436053182   -1.19221828887960   -0.81790541802880
C         8.88278649289519   -0.19466473729522    1.49765148543161
O        10.04000924117993   -0.47174774674040    1.21892726511226
C         8.14718421207925    0.99501594414461    2.06959953290300
H         0.53975325247489    0.42237876394378    0.95223645868503
H         0.57303255627340   -0.88582108403535   -0.19273638173601
H         0.87924563333972    0.85402373589487   -0.65979033434050
H         1.99555084773899   -1.92791307545325   -1.78175893273348
H         3.65359297300156   -2.44715652020205   -1.92632188067130
H         6.03685949324049    1.13348580078687    2.75243618617365
H         5.70529192574740   -1.27557154224373    2.01293670672683
H         7.09029824678631   -1.23748085693860    3.24306713295957
H         8.09788657482991   -2.12076410219324    1.01889434076965
H         7.82497795205913    0.07139300526764   -0.71968308635002
H         6.23561479706734   -2.26123949476145   -0.74200344358476
H         6.03796012150095   -0.91294296588825   -1.87678971261582
H         8.34894129002597    1.94425405776086    1.57003476840938
H         8.42988423869817    1.03259799985543    3.12494263660390
