30
 energy: -45.981967987088 gnorm: 0.107884141830 xtb: 6.4.1 (79825abcba525fcdf90b791dcacef51065a7a4e7)
C         1.13759507751930    0.24722023230292   -0.00288051851969
C         2.58357325199359   -0.06869947624105   -0.16755461488984
C         3.19972250544508   -1.30369241719754   -0.05171501463573
N         2.66723441298541   -2.53059180709120    0.10271034365606
C         4.60143018415817   -1.19851712156456   -0.00424109439605
C         5.06294054522568    0.08797530101875   -0.07625285465740
S         3.79119661631584    1.17089790821987   -0.26512332784657
N         6.40828639854291    0.30784522322282    0.05993584396909
C         6.79687674674750    1.22453235924526    1.17256795951504
C         6.66088540858696    0.33558378840307    2.42596436165430
C         7.52354451108292   -0.78158354522915    1.84451909770112
C         6.91998140774064   -1.07904021515881    0.46163967902977
C         5.72620162346173   -2.08218186028980    0.37797950285181
C         8.81835566652897   -0.09212790442398    1.48150480567621
O         9.96889656706357   -0.50307835423754    1.51315977353264
C         8.32715292107254    1.26733785298273    1.04088237860403
H         0.58105060824096   -0.68421134501478    0.13761091575207
H         0.75121278715734    0.67062598547837   -0.93532934520652
H         0.92273501740173    1.02827700349595    0.73449106130909
H         1.65969294417987   -2.49807200981043    0.22237628545641
H         3.09693234790089   -3.29317463886022   -0.41211981726845
H         6.37964886235056    2.23191380248851    1.09970406984961
H         5.66637940980646    0.00766320914670    2.74523196057059
H         7.15100576080771    0.80125570877532    3.28835076306395
H         7.73798213208466   -1.72953018842635    2.33403282070201
H         7.73243355009697   -1.37256320615068   -0.21501224383390
H         5.57252248435940   -2.59869374084266    1.33121160061851
H         5.86653131720671   -2.83389696689823   -0.40636325403218
H         8.65314242041365    1.42037567206374    0.01052606185741
H         8.71801786003426    2.11381044762351    1.61166213318866
