30
 energy: -45.979826434763 gnorm: 0.122769591594 xtb: 6.4.1 (79825abcba525fcdf90b791dcacef51065a7a4e7)
C         1.14001157435582    0.21999594069865   -0.26243624182643
C         2.59362294433185   -0.09302714491565   -0.17993642758380
C         3.19692768966400   -1.33961644929780   -0.16247893582244
N         2.52130345357702   -2.50311069564518   -0.21233785047193
C         4.57871523015225   -1.17391721087442    0.04076232756256
C         4.94855448591893    0.14334161280039    0.07665663355153
S         3.67754421339957    1.24261999355004    0.03369156196672
N         6.28429774874333    0.41057711608506    0.22233007552236
C         6.79245060999200    1.09984248466223    1.44542529914327
C         6.80418148332869    0.02874960980392    2.55553709136763
C         7.68483674583985   -0.89511000489757    1.71812924828955
C         6.93598190937824   -0.96713638748910    0.37680415152302
C         5.77115810169529   -2.00562100132746    0.32079014069179
C         8.89055049139032   -0.04630247255955    1.38730523885490
O        10.04368487724232   -0.43435247523130    1.27187145369730
C         8.29939784721973    1.33896039211009    1.26417621457675
H         0.75800974458466   -0.37506895595714    0.57243903839602
H         0.70087561511162    0.03080559295701   -1.24701287325797
H         1.13240115988577    1.29114157433792   -0.03326278808457
H         1.67341365295251   -2.38017293819147   -0.75684356664105
H         3.10278044316167   -3.16908325645573   -0.71192571616106
H         6.25723793577827    2.03550706047011    1.62510508557043
H         5.79907821803805   -0.38620304638280    2.68237402121536
H         7.23242990288108    0.35504259307865    3.50995564978834
H         7.98284180782165   -1.86657106019167    2.10757297955915
H         7.70313885092941   -1.19267170932396   -0.37465849229112
H         5.78437711590155   -2.52459502079175    1.28491900337091
H         5.97815990761269   -2.79608852169704   -0.40878024700470
H         8.36440979981823    1.61547917937117    0.21030967928159
H         8.74208794872576    2.06106774059512    1.95531095993551
