30
 energy: -45.977403738998 gnorm: 0.111895736398 xtb: 6.4.1 (79825abcba525fcdf90b791dcacef51065a7a4e7)
C         1.16237218717814    0.31640602533485   -0.23513194769503
C         2.61190482773839   -0.01497517811139   -0.15256476000299
C         3.18132270526817   -1.27450499829337   -0.06530525431242
N         2.59866631491154   -2.48671236295966   -0.00416823869757
C         4.57321934258973   -1.16060475294113    0.10127970222415
C         4.99909662970791    0.13994861530326    0.12201020344095
S         3.78560153536495    1.25990734274416   -0.19239107215119
N         6.34441983300046    0.37175128863198    0.23698244867416
C         6.73020377331881    1.02991601668744    1.52043791497632
C         6.75558744143339   -0.15283069185170    2.51048419660426
C         7.73066895619919   -0.95668992863778    1.65412647992697
C         6.89855405517579   -1.05070992291241    0.36421585791169
C         5.72664945729466   -2.07657832897445    0.25180594025266
C         8.82768150866244    0.03942848830900    1.35751908321982
O         9.99651170032655   -0.19304718919943    1.08656204438091
C         8.21386425906949    1.41852832549220    1.42742924760740
H         0.62213173308751    0.06441625566773    0.68230240231370
H         0.77453685899501   -0.36605137853432   -0.99792954251629
H         0.96675248646545    1.38722261897909   -0.35767226690021
H         1.70801755290722   -2.55963779152550   -0.48577384176602
H         3.19581003279313   -3.30531737053120   -0.07146023110137
H         6.10313642752736    1.87440090580430    1.81681173854633
H         5.85309883058341   -0.77236582566309    2.52449889736616
H         7.22508576924895   -0.03522667622170    3.49360128957574
H         8.04288689431336   -1.90391428633209    2.08943785595666
H         7.66656963776223   -1.16854332113936   -0.41061277451235
H         5.66974267266156   -2.78063330852369    1.08853854003399
H         5.90389895367666   -2.52130335255404   -0.73346755343624
H         8.45766234159186    1.86988126321729    0.46401506430740
H         8.53935764163956    2.04905015635889    2.25904037210337
