30
 energy: -45.983650314528 gnorm: 0.112275757832 xtb: 6.4.1 (79825abcba525fcdf90b791dcacef51065a7a4e7)
C         1.12768646342150    0.19208318489105   -0.59666534343607
C         2.55497554893594   -0.04054909293535   -0.24099159182067
C         3.16723447824561   -1.27932745142499   -0.14700494519345
N         2.60946053211224   -2.49766002695796   -0.27825607072078
C         4.54007058365014   -1.10454852511535    0.10374078191078
C         4.93854262678288    0.16393699972432    0.42840180177678
S         3.65826890910458    1.22608828162110    0.18661695190196
N         6.28953254375027    0.38907495775770    0.39702093979641
C         6.87419575983586    1.14340085571412    1.54524973117648
C         6.93032384477618    0.02570048988339    2.60700359950450
C         7.75281258575233   -0.91650507990077    1.73174186201406
C         6.87293523354376   -1.02520663058549    0.47510977570902
C         5.66498240031905   -2.01330995234683    0.42121966291090
C         8.86347430210357   -0.03693747617385    1.20595124844009
O         9.95236728816328   -0.46050033850060    0.84743592029100
C         8.35447513295034    1.38589615994086    1.21225186090066
H         0.42634399787466   -0.33983318456561    0.05312547076755
H         0.93286602336377   -0.18864619892099   -1.60419433081500
H         0.83685648606403    1.23830554919462   -0.45255405128187
H         1.71147802409094   -2.47871553548816   -0.75131612030438
H         3.27840286659811   -3.21379754321085   -0.54450068816054
H         6.28380291119098    2.05413537072577    1.67254683774255
H         5.96513625693865   -0.41523167504200    2.87625744556627
H         7.45113527206391    0.36426995173966    3.50972436449275
H         8.13134918632764   -1.84291844043357    2.15915073766509
H         7.52667250701812   -1.22752027868305   -0.38267156100625
H         5.55968474059461   -2.55849416258285    1.36500979751824
H         5.84362526829194   -2.80810326998994   -0.31114083855553
H         8.70459181786482    1.93310501076142    0.33515172395185
H         8.73606626631850    1.92143230859247    2.08556167024055
