30
 energy: -45.978361839809 gnorm: 0.112021952050 xtb: 6.4.1 (79825abcba525fcdf90b791dcacef51065a7a4e7)
C         1.05023219675651    0.19460636038229   -0.03786770958648
C         2.51952203825073   -0.03726716215633    0.03422756677860
C         3.33210691758287   -0.81876063949012   -0.77028473088702
N         2.94966631219511   -1.78857876074680   -1.62226176374894
C         4.68469875370531   -0.69894482871517   -0.40389759817394
C         4.83715877008282    0.21873637917789    0.60002341610077
S         3.41464087807174    0.88901941725924    1.19406848279623
N         6.10905877747883    0.62323902246665    0.90904378415281
C         6.63917561514096    0.31382585988484    2.27011234338502
C         6.93132626189725   -1.19845317601478    2.18417129957617
C         7.78097500598434   -1.09049319449153    0.92054009295492
C         6.98641250174245   -0.19428398553434   -0.04413801699138
C         6.02423109388308   -1.04903456310235   -0.92845173165139
C         8.84520629225312   -0.14303698897294    1.42393148346730
O        10.03485265212809   -0.23964604786780    1.16118654841202
C         8.08288776895579    0.83962515978534    2.28231425155581
H         0.53903167327050    0.06162924695227    0.92027397483985
H         0.58694967345922   -0.47916451065354   -0.76548480645903
H         0.86355692653286    1.21081552394020   -0.40173945511305
H         2.22100399602540   -2.36095179526863   -1.20758403350334
H         3.70994413180002   -2.41596984341508   -1.86635405263730
H         6.01615800965032    0.57790153010336    3.12820250815749
H         6.00605288629903   -1.77366348784376    2.07689518764494
H         7.56714964477349   -1.56650678759159    2.99721728051185
H         8.22108529744009   -2.02700242598379    0.58369679387269
H         7.53347842360763    0.55243730133753   -0.63339029884607
H         6.32763397244779   -2.09276589448348   -0.79569317501631
H         5.99185224443996   -0.80093537578506   -1.99492254152221
H         8.19117924990396    1.85768661711300    1.90396561380859
H         8.45978022248233    0.68493167358593    3.29676128603208
