30
 energy: -45.980366279863 gnorm: 0.108410965625 xtb: 6.4.1 (79825abcba525fcdf90b791dcacef51065a7a4e7)
C         1.09824487799621   -0.26075778544537    0.21050951686367
C         2.57569590670334   -0.10790220926595    0.10304163443874
C         3.35849251593478   -0.63537343955435   -0.91050159407549
N         2.94726254953879   -1.27850706157341   -2.01952908233722
C         4.70075697636316   -0.40387117844959   -0.56002635341179
C         4.91925666520404    0.44641540021042    0.48997884231799
S         3.48891862077480    0.69760296118707    1.33659797064557
N         6.19955161745334    0.63446387638345    0.93978795216676
C         6.63135676119566    0.24425482943969    2.31476039732409
C         6.80350967725721   -1.27793994362267    2.13306781148301
C         7.76339163062560   -1.07541876260144    0.96348071261024
C         6.97453938677951   -0.23536225347141   -0.05492076976611
C         5.98817499668037   -0.98170991765461   -1.00804868270446
C         8.82410298650120   -0.15340174857356    1.51885485129203
O        10.01440445973265   -0.17882384115501    1.24287877412122
C         8.07815717277282    0.73057476782036    2.49133918072916
H         0.65116518163864    0.56233548123062    0.77591343915657
H         0.85864124517604   -1.15692971579554    0.79144883681550
H         0.61645086330471   -0.20466515494994   -0.77166130262755
H         1.95920010206494   -1.46740702006826   -2.15578878143458
H         3.59375305104759   -1.82341094613467   -2.58198155703756
H         5.95312773349491    0.67481190808831    3.05559210489416
H         5.85712467838217   -1.70654501470448    1.78787364280664
H         7.10762403275461   -1.85049951148977    3.01650915339240
H         8.24473700446608   -1.96322107245814    0.55811210460746
H         7.60396918032360    0.36181308747666   -0.72670332715487
H         6.11046418541141   -2.06854619587975   -0.95433181977133
H         6.27382970444254   -0.69942305909716   -2.02720378037112
H         8.17020134206448    1.79791429988862    2.28244192481772
H         8.40722967682656    0.57911593772147    3.52277133753212
