30
 energy: -45.973144454294 gnorm: 0.137650185306 xtb: 6.4.1 (79825abcba525fcdf90b791dcacef51065a7a4e7)
C         1.12000927385061    0.14142223200572   -0.29867594682835
C         2.58950192549609   -0.06553490705251   -0.17403334983050
C         3.21122278203238   -1.30301664102876   -0.19322720207747
N         2.57448171622576   -2.48845904869929   -0.23749893404827
C         4.59491619510939   -1.12722987453662   -0.01269580552967
C         4.90723894444963    0.19393880705384    0.16110889748560
S         3.62760610642514    1.28396815392867    0.15101543429681
N         6.26383581342073    0.36226961893386    0.25141550735638
C         6.88150289919477    1.16810342866058    1.34612425327285
C         6.89617299717740    0.17905139461983    2.52988377700330
C         7.63365555171716   -0.91036822496391    1.75554112189540
C         6.95798128089320   -0.99754485360426    0.37677758368556
C         5.76477187405898   -1.99654019010353    0.24769624665827
C         8.85127724052652   -0.12714046159700    1.32239440584964
O        10.00756270931772   -0.49949827541781    1.45648484367219
C         8.38751264205925    1.28804958444727    1.06600615151663
H         0.63426967126463   -0.68777924734635    0.22432148522708
H         0.74008829245558    0.25840768191027   -1.31847934711677
H         0.85120148389740    1.05180200303717    0.24802544245922
H         1.59454585071744   -2.61953788718287   -0.46784938622754
H         3.11316002432843   -3.32324581456110   -0.44768866430461
H         6.35656308049014    2.10721208486450    1.53774561614894
H         5.92611383448142   -0.31700307593097    2.63675318024879
H         7.30358379977061    0.56950572107315    3.46921357026189
H         7.77916800707317   -1.82483262297854    2.32719749484533
H         7.77156356131943   -1.16478130556622   -0.34030532692989
H         5.73687832946448   -2.70620541934376    1.08115317510097
H         5.86430471161072   -2.61042264536545   -0.65408151360341
H         8.56781980603764    1.64925727315269    0.05193406308054
H         8.92366543524945    1.96373305101549    1.73762570051177
