30
 energy: -45.977988042091 gnorm: 0.119162291658 xtb: 6.4.1 (79825abcba525fcdf90b791dcacef51065a7a4e7)
C         1.13109467267845    0.22878215352822   -0.43715201937084
C         2.57287980824756   -0.03229232183171   -0.17093508636357
C         3.20378918256138   -1.26514897681096   -0.18779117368586
N         2.56050091013292   -2.44720858963380   -0.14793941019326
C         4.59064758342763   -1.14058770167319    0.01021975975826
C         4.93106603111532    0.15753694097046    0.27897236802234
S         3.70520814915902    1.27039189241628   -0.01180652780014
N         6.27843536674841    0.40140387432797    0.32336162479188
C         6.83142474611118    1.06286080248712    1.54235525683786
C         6.83020944250602   -0.10393477716184    2.55146989162241
C         7.72274254015628   -0.92886852980728    1.62778642536511
C         6.91303773954556   -0.99284380412985    0.32187307580141
C         5.72809795541096   -2.00732035806240    0.39368804489075
C         8.86805149456261   -0.00991224012974    1.27078345223846
O        10.02082731015357   -0.36110184110364    1.06731243056001
C         8.32330145061948    1.39503165574354    1.38460544600312
H         0.56517716835769   -0.23488798459987    0.37635382267328
H         0.73584220148811   -0.36574904116980   -1.26681018328004
H         0.95676727113743    1.27954133011564   -0.69297712120909
H         1.61135859753878   -2.50465610228466   -0.50339116586712
H         3.08398791997350   -3.31431364299576   -0.22083089704656
H         6.25750481295190    1.94179795302057    1.84614963472287
H         5.90494776516544   -0.65493950482314    2.74842294724970
H         7.34887915033720    0.21520039529401    3.46246554386696
H         8.03801905088758   -1.88783086489921    2.03423688879921
H         7.56689831468303   -1.07238694519489   -0.55575514502471
H         5.63571335987108   -2.43730412823764    1.39650023082583
H         5.87809063367459   -2.81247559596462   -0.33376562031780
H         8.60529963713586    1.84932154461895    0.43306901017688
H         8.74580759304518    1.85845277942553    2.28004400109994
