30
 energy: -45.973482385322 gnorm: 0.121798909155 xtb: 6.4.1 (79825abcba525fcdf90b791dcacef51065a7a4e7)
C         1.03485912550114    0.22116404232012   -0.39458451224505
C         2.50389260128922    0.00367022908568   -0.28317176989150
C         3.22769871325631   -1.17692166775704   -0.30712547851334
N         2.68186498649009   -2.35284897052733   -0.67035186163779
C         4.59470618178710   -1.08197383843742    0.00969553901246
C         4.90693423310774    0.19854025695682    0.37852826643271
S         3.56482289920724    1.21062726403714    0.36656443664760
N         6.23956582400949    0.45387923552795    0.56758034371667
C         6.87237564815962    0.98765585142126    1.81011898043318
C         6.98626177401460   -0.35817730339054    2.55543020356699
C         7.82768546556973   -1.05730666896823    1.49074880775151
C         6.91438622357117   -0.88767485753548    0.26509227967358
C         5.79240821336039   -1.95157464387617    0.04672342615512
C         8.90680025592590   -0.02393361231111    1.26421893617560
O        10.10629860787396   -0.25642065034279    1.23628768797499
C         8.27754327749779    1.34937730693009    1.30456967495278
H         0.55899661392327    0.88555643500487    0.33286445384029
H         0.43732313172116   -0.69000491485384   -0.49824933567461
H         0.91896630700301    0.74322222275955   -1.35059469947858
H         1.67425424717272   -2.33213564717598   -0.79204345359992
H         2.94314382989825   -3.24082663275269   -0.25267731216162
H         6.39239136064085    1.84591626121052    2.28678425700983
H         5.99127871160055   -0.81133713316326    2.61165085027907
H         7.44255010834406   -0.37740379607104    3.55152753908335
H         8.11344091945688   -2.06495148358402    1.78605503503086
H         7.48875032171836   -0.72092545269157   -0.65490368595781
H         5.83763340877038   -2.62946406576434    0.90548640466160
H         5.99975074152824   -2.56445138205024   -0.83721819029850
H         8.31151001070161    1.90574760528660    0.36615493652143
H         8.72075610459209    1.87878574607157    2.15213670903491
