30
 energy: -45.977561767495 gnorm: 0.116736290932 xtb: 6.4.1 (79825abcba525fcdf90b791dcacef51065a7a4e7)
C         1.02792702713564    0.21952241690501   -0.23035604659005
C         2.50092348928711    0.03234512160038   -0.11624297307514
C         3.28721768695258   -1.05960891467141   -0.44433458153022
N         2.80610135072895   -2.22965849913273   -0.90496883829688
C         4.65911564588672   -0.79230191228690   -0.28767250448434
C         4.91903348785980    0.29991174957759    0.49511246184256
S         3.48876192419922    1.13339247526327    0.78727541363380
N         6.23579438529627    0.60157351930204    0.72311802139044
C         6.69417968342719    0.53813042786824    2.14266931951302
C         6.91328298040304   -0.98233878162730    2.28371142140038
C         7.88851308576074   -1.07396741520788    1.11287727135127
C         6.96230315174105   -0.54112731656311    0.00682982024397
C         5.90256200437898   -1.56416856731088   -0.51156930946320
C         8.92426318382007   -0.01339035054284    1.40624123139415
O        10.08472204662018    0.09831378882335    1.03952050893810
C         8.15827095729914    0.99621239209688    2.22936553556224
H         0.72136518006925    1.14283591584577    0.27020003546070
H         0.38264168120503   -0.59817262368288    0.10580786216024
H         0.78716829133995    0.22798590273869   -1.29895090381664
H         2.00773834620248   -2.10614118021541   -1.51968606334473
H         3.48371958258732   -2.69331171885680   -1.50253239324182
H         5.97114836880815    1.09113149690439    2.74733547739879
H         6.00510582407927   -1.52540824983950    2.00300571842864
H         7.34132850140355   -1.32954332045988    3.23081471190665
H         8.13678668454130   -2.09170262800321    0.81828386722640
H         7.48387414425247   -0.20685323253439   -0.89888348509689
H         5.92015406315093   -2.54417510407644   -0.02337780660451
H         6.09111751786569   -1.74953819343923   -1.57460576669673
H         8.28645829307454    2.00734172062943    1.83884107172419
H         8.51023235716194    0.94629057517676    3.26315070127100
