30
 energy: -45.975009160008 gnorm: 0.126605045563 xtb: 6.4.1 (79825abcba525fcdf90b791dcacef51065a7a4e7)
C         1.15742259051011    0.17820155210184   -0.55234771370371
C         2.58917213986013   -0.12502514059214   -0.27680734990274
C         3.22626887629310   -1.35091602977493   -0.17900372878078
N         2.57657129487843   -2.52652709783686   -0.27122386372372
C         4.59340590419140   -1.11713512800596    0.05419768877168
C         4.95919202768989    0.18992714237433    0.23034827898343
S         3.65362380689414    1.21870936640530   -0.02030055627516
N         6.27590126603201    0.43157267397141    0.52143223712042
C         6.82671236811769    1.17098580988326    1.69580158468016
C         6.98402975560822   -0.02505544090838    2.65729121898260
C         7.77261636149413   -0.93290144839172    1.71693545271800
C         6.92659693995155   -0.95240314014804    0.43280336997481
C         5.75991874406473   -1.98544208517834    0.33233002060955
C         8.90280793697723   -0.03594043716854    1.26772243498643
O         9.97307732700214   -0.42564222572325    0.82468448627183
C         8.28909005781789    1.34493653361289    1.25749664644358
H         0.51708875186074   -0.68877272806604   -0.36427181437968
H         1.01439499822459    0.48591474700037   -1.59296302097734
H         0.86237303015149    0.96815977473406    0.14682546079220
H         1.58345001060127   -2.32795754632667   -0.34048807356251
H         2.70630390082776   -3.17587966917305    0.49866812459190
H         6.18391443652998    2.00584002822902    1.98568929991098
H         5.96640884182213   -0.35105172594109    2.89536680742709
H         7.49180793707954    0.22437434557298    3.59576056019801
H         7.98975508433584   -1.93651857319562    2.07723180484974
H         7.53004054701716   -1.09781308794964   -0.47207442257839
H         5.45897840918631   -2.50596212817148    1.24750597511806
H         5.98126919856516   -2.82783493844617   -0.33200412698673
H         8.40904475290514    1.90766145230751    0.32998631930734
H         8.77297885987103    2.03638871752934    1.95235367402504
