30
 energy: -45.978245736424 gnorm: 0.121085466974 xtb: 6.4.1 (79825abcba525fcdf90b791dcacef51065a7a4e7)
C         1.11575271517958    0.15809251595615    0.02888586007048
C         2.57987023588140   -0.08700367337868    0.14747534476737
C         3.29470682590132   -1.03592975783715   -0.56443353289961
N         2.90602708221278   -2.14467179184762   -1.22192274085379
C         4.66808312800592   -0.85213472284391   -0.32327595190697
C         4.91912041437130    0.29125261537346    0.38586857151345
S         3.55713036513402    1.15986752706213    0.85086029501971
N         6.24761102001087    0.56890417117990    0.57259817083471
C         6.61936769268123    0.63023946860569    2.01734830410973
C         6.81522927292005   -0.84113182052303    2.43738463379508
C         7.78976385577467   -1.17840106592892    1.31183855412466
C         7.01178585362667   -0.66705854488298    0.08774564910714
C         5.93918927100307   -1.54713470340204   -0.62877713356589
C         8.83427100415979   -0.08768512640869    1.36668327932421
O         9.95976053403082   -0.03375792627662    0.89340550706814
C         8.10230679234481    1.02826686366306    2.07552385122107
H         0.82358717707122    0.74057701796980    0.90774618892019
H         0.39188689120821   -0.66060151831318   -0.03261929209265
H         0.84654121314101    0.82755195361616   -0.79529895214810
H         1.97649221818449   -2.12892445324422   -1.62964108966808
H         3.61351078713657   -2.55415034019996   -1.82443175712901
H         5.96648588089354    1.32680702097390    2.54908565529040
H         5.87413199741899   -1.39651398471708    2.37110901919936
H         7.22787967106806   -1.02423048124309    3.43587005323816
H         8.06723432783819   -2.22786062878192    1.23532200001516
H         7.76811027206431   -0.28921930453807   -0.61175627404233
H         5.86193467806325   -2.59258077096791   -0.31234786011587
H         6.03599197637963   -1.55057995524240   -1.71991367653514
H         8.39246037298273    2.00283178370618    1.67884011699027
H         8.28791199590900    0.97467819468195    3.15151629780968
