30
 energy: -45.978760304830 gnorm: 0.114365577554 xtb: 6.4.1 (79825abcba525fcdf90b791dcacef51065a7a4e7)
C         1.10944517104834    0.14916972300600   -0.18472107456256
C         2.57057105996884   -0.06029926313997    0.01278732815159
C         3.25613856992516   -1.24309025650290   -0.20917871072280
N         2.55176411543407   -2.38019741770228   -0.36253064240165
C         4.64914734449210   -1.07029319061313   -0.12104364484717
C         5.00431045314150    0.23122818720147    0.10948085559243
S         3.67846645670698    1.26215184216106    0.18061574192845
N         6.33075606807220    0.53240426536065    0.27282289136087
C         6.74979237695074    0.98241504567355    1.63339882256827
C         6.77069532210418   -0.30310843631876    2.48587650036503
C         7.63312477964401   -1.05559933634094    1.47577994591213
C         7.00498203916577   -0.83093126622398    0.09010850822830
C         5.88842143522398   -1.87174013225235   -0.23915079100161
C         8.80618144070767   -0.10301644669672    1.46205789670568
O        10.01048143287155   -0.30261300675254    1.40332617132878
C         8.25455101583816    1.29325089329994    1.63444350095103
H         0.68449097224273    0.58992291286174    0.72202857247220
H         0.54023066219325   -0.77317829118646   -0.33734317925891
H         0.93839833105424    0.87780947075777   -0.98457009927607
H         1.57256057726622   -2.45696525739031   -0.10604589557447
H         3.11134039544741   -3.22451485490387   -0.43481783606917
H         6.12608916919841    1.78363419377295    2.03743819341381
H         5.73347840673285   -0.62857285386789    2.61533641866389
H         7.34460537724158   -0.06702749526791    3.38902191494494
H         7.82985868671871   -2.11637390989434    1.61812843094193
H         7.79165008073534   -0.88838474124762   -0.67274439273133
H         5.89288900710718   -2.77795320501909    0.37551265028072
H         6.12777354022613   -2.29341967832923   -1.22142291581990
H         8.55024322943759    1.94666160128419    0.81167717338331
H         8.64062495446252    1.76347762263851    2.54269155111049
