30
 energy: -45.979191209198 gnorm: 0.115082628902 xtb: 6.4.1 (79825abcba525fcdf90b791dcacef51065a7a4e7)
C         1.05297429426489    0.04683054723029    0.13901256687120
C         2.52763206438940   -0.15996265564979    0.11909486043094
C         3.35927441238894   -1.06437720647722   -0.52017940191894
N         2.77633197066965   -2.07915176209735   -1.18582463343997
C         4.72908556727657   -0.81287027288046   -0.32406286695611
C         4.94821558119125    0.36802244784367    0.33222569199554
S         3.50864114306766    1.08253229922953    0.82500064227944
N         6.25126751107071    0.68355458541289    0.61390057672209
C         6.66677654588404    0.56977509720912    2.04347200103832
C         6.75144523939918   -0.96489098885109    2.17521782049160
C         7.80306984428847   -1.14387634940322    1.08325989953878
C         7.04298212612385   -0.44396621695443   -0.05582606747527
C         6.01992535150339   -1.35200320500527   -0.80897015592004
C         8.84128137127983   -0.12957262480917    1.50393692961711
O        10.04562713110638   -0.27978967513073    1.64750851721559
C         8.12208012888267    1.05982736824413    2.09693999434601
H         0.59192026773400   -0.64404128166958   -0.57314588983473
H         0.77826379950736    1.09823540252762    0.00822076713502
H         0.60522715862148   -0.23794152647990    1.09732292136503
H         1.82771353712633   -1.95022147437269   -1.52348916234090
H         3.38140455981382   -2.45135592103544   -1.91147896174625
H         6.03265905308561    1.15581808236011    2.71328858004784
H         5.81480693868687   -1.43950018603111    1.86544259659113
H         7.08656939067785   -1.33336822786542    3.15127874548822
H         8.15247514302376   -2.12348148777221    0.76310411599182
H         7.72307858814473    0.07783565706403   -0.74086888330385
H         6.14563854408401   -2.43446171997105   -0.70157839354611
H         6.16518714675820   -1.04562930027334   -1.85060138772825
H         8.24666715298337    2.02928823966959    1.61119565842273
H         8.54278321830538    1.23460928698157    3.09069095601876
