30
 energy: -45.978013136981 gnorm: 0.123651410790 xtb: 6.4.1 (79825abcba525fcdf90b791dcacef51065a7a4e7)
C         1.07757048147275    0.17764901492831   -0.17712860047453
C         2.55124763714131   -0.03006559522718   -0.23103572766126
C         3.18395354381324   -1.26093167915210   -0.17701537635174
N         2.65931868568279   -2.47493235444111   -0.42927219183249
C         4.55717111885376   -1.12720231417321    0.09591316074924
C         4.94128407133951    0.18645190237670    0.09909133700435
S         3.68805094346332    1.27648099143248   -0.15969306274756
N         6.27245469762596    0.43621958723877    0.30511677048813
C         6.78261552390677    1.10124382814016    1.54073268427353
C         6.88317486570745   -0.05108372827067    2.56139657076821
C         7.76101776871186   -0.93749728934192    1.68163239228811
C         6.91079242661004   -0.95307083756648    0.40022741596818
C         5.74185736383514   -1.98558878652122    0.32341683246240
C         8.95818363167013   -0.05512272957884    1.41354020390092
O        10.11205755721703   -0.42433624892953    1.25265820796769
C         8.28172109817812    1.28738287859082    1.25974637271842
H         0.65090669294890   -0.09775535094753    0.79197140512140
H         0.49751515251991   -0.28011356787597   -0.98460228833295
H         0.88928976726107    1.24888687299661   -0.30724851272915
H         1.69038494950581   -2.77754909008989   -0.41888840916582
H         3.21226775399910   -3.24431206256583   -0.06386122513243
H         6.11646791986967    1.88098035751712    1.91817664355860
H         5.95792244570320   -0.58882506095562    2.79215208129116
H         7.38298360528972    0.28018213974155    3.47858398432201
H         7.98819213586629   -1.95220252858667    2.00252973192307
H         7.50637257964224   -1.03100873275796   -0.51808735616286
H         5.64288403329544   -2.45477155786209    1.30785831687866
H         5.88664160015930   -2.73838624722529   -0.45907604284316
H         8.40306548007931    1.82766620279824    0.31916498918202
H         8.60424366139864    1.99970635395206    2.02371970062349
