30
 energy: -45.978822457080 gnorm: 0.122715146482 xtb: 6.4.1 (79825abcba525fcdf90b791dcacef51065a7a4e7)
C         1.09698643443843    0.14826386789675   -0.62303998413572
C         2.53345523655068   -0.05555774066929   -0.28719798374173
C         3.15348551665090   -1.25563794508740    0.01880242317554
N         2.65448027134616   -2.49669805483376   -0.13428726450474
C         4.53725182527333   -1.10173079146285    0.21780858797795
C         4.93322227080060    0.20424402887813    0.32210367639156
S         3.62430643484614    1.23503785608363    0.09865457613393
N         6.28510145833476    0.39724792484372    0.43172941805425
C         6.89917345568315    1.11588579090921    1.58747299377099
C         6.99549822659798   -0.04171137295787    2.60256712552617
C         7.76470515978432   -0.95989733218290    1.65621760573127
C         6.88129863073176   -1.01345894096083    0.39850204072120
C         5.67941903948680   -2.00724379934225    0.47774516454140
C         8.87167508483187   -0.02764024082167    1.22127083967280
O        10.01462240128754   -0.37001376281393    0.95654744034886
C         8.35391873234618    1.39134343401194    1.17667152376402
H         0.39478509373579   -0.16446609203675    0.15552127189639
H         0.83039659500468   -0.34445713193292   -1.56334865737657
H         0.80071560732570    1.18612621839488   -0.81011407191595
H         1.65745467140113   -2.59674952389656   -0.29691243875554
H         3.11611357255325   -2.92302817569111   -0.93200920803111
H         6.37977812342549    2.03263637377765    1.87730482722289
H         6.05602695071357   -0.53051725708722    2.87999895167668
H         7.61739090168904    0.17993179756262    3.47715411931397
H         8.08533224396746   -1.89355383581818    2.11414099032972
H         7.42862490883233   -1.09932010389864   -0.54868002549011
H         5.74236178754730   -2.56532463890889    1.41776496779570
H         5.72581786350606   -2.78849652548666   -0.28870961114158
H         8.43355934166316    1.76648591715461    0.15478632467985
H         8.82546569396954    2.00664488743520    1.94746875285528
