30
 energy: -45.975659730921 gnorm: 0.122928720723 xtb: 6.4.1 (79825abcba525fcdf90b791dcacef51065a7a4e7)
C         1.09324864470255    0.19600191932161   -0.44054904072995
C         2.55377860370685   -0.02147171643862   -0.24733112666008
C         3.17918895576986   -1.24867388899699   -0.10206238121601
N         2.56157511830173   -2.44424077059808   -0.05909888525211
C         4.55530200054174   -1.08641637130033    0.13894683371510
C         4.97509993430369    0.21477435343053    0.07639547037255
S         3.70604322844578    1.27332759932979   -0.23131570560373
N         6.29515777073724    0.44681057103135    0.36003632263993
C         6.75041742049359    1.02048892681553    1.66115115266300
C         6.97294527528403   -0.17833746543637    2.60614977044364
C         7.76453807448604   -1.00831829349284    1.59875965782429
C         6.89121268941532   -0.96410115888174    0.33366203395925
C         5.71821854384042   -1.99303312601305    0.27213069580560
C         8.84857082258459    0.00846847880831    1.32547949492157
O        10.00482585891056   -0.27806184937252    1.05234704409818
C         8.22492610677874    1.38143184573048    1.42353187478652
H         0.56029315281737    0.11109563483051    0.51118292759641
H         0.65281811989410   -0.57436416685650   -1.08131543342063
H         0.97908225721799    1.18333405491143   -0.90106251386661
H         1.72661147429724   -2.37768105366926    0.51441902925906
H         3.16170029365573   -3.18551091058591    0.28960060815554
H         5.99975395142700    1.72949530136862    2.01894990488688
H         6.15185994021892   -0.87552846942043    2.80172447398259
H         7.60754693638976    0.03081793222814    3.47466192093751
H         8.15843626564903   -1.96999186880908    1.92161902187474
H         7.50985897348673   -1.04361031340845   -0.56913757105009
H         5.84033692778642   -2.67531436203661    1.11985273725208
H         5.89063950104720   -2.59419288597899   -0.62722437735419
H         8.32352819927824    1.86211849678932    0.44857452233930
H         8.72382461926891    1.84161217318905    2.28051211039059
