30
 energy: -45.973697960044 gnorm: 0.117136728106 xtb: 6.4.1 (79825abcba525fcdf90b791dcacef51065a7a4e7)
C         1.14081051191148    0.21820290199269   -0.28401987906177
C         2.59242008081649   -0.06178510582611   -0.10454263908414
C         3.24024216264747   -1.28544537251036   -0.13987513689925
N         2.62202274467480   -2.48103793647146   -0.10768743694025
C         4.61986300855540   -1.12505973139505    0.08153579903971
C         4.97512593641325    0.19365533136544   -0.00801358777265
S         3.68752045030893    1.27261817979199    0.05229669223743
N         6.31523828896467    0.44479617006347    0.12567547966731
C         6.74317701220711    1.11723655835051    1.38819691034454
C         6.79268414282551   -0.00149326385308    2.44919567414064
C         7.62285845880682   -0.98065767737306    1.62313887909661
C         6.94850043925223   -0.94524997546083    0.24143271195521
C         5.80955019654321   -2.00580057960627    0.11326438680892
C         8.84146237820572   -0.10803156721320    1.43028518944149
O        10.03835758249047   -0.35511924054606    1.42625712088120
C         8.26562108922013    1.27835694576625    1.25734269073264
H         0.55053571956857    0.06947255538815    0.62510020628659
H         0.70190567977381   -0.49381036168259   -0.99001151098212
H         0.90687858316309    1.14881165059559   -0.81238962063890
H         1.77824844282978   -2.51639236779863    0.45561734665879
H         3.24576395745096   -3.28230174419496   -0.09559628059340
H         6.19908071105601    2.04317852591960    1.59017788484937
H         5.80784233364824   -0.41695599122859    2.68580340896212
H         7.26508271875169    0.23172296126044    3.41004341494262
H         7.65133711471616   -1.96151040910796    2.09359281151593
H         7.78192744537210   -1.15009763595801   -0.44232815165522
H         5.79045186855691   -2.65724905812269    0.99320947787252
H         5.80031901978358   -2.72094904719506   -0.71645788262530
H         8.62990211832018    1.81162628653218    0.37742962112165
H         8.71461263255914    1.88727194684323    2.04646238902827
