30
 energy: -45.980945127167 gnorm: 0.113006427559 xtb: 6.4.1 (79825abcba525fcdf90b791dcacef51065a7a4e7)
C         1.19562194896305    0.21572415803575   -0.67296814674152
C         2.53817801120231   -0.09442954906063   -0.10805789042224
C         3.19130784922160   -1.31553578622063   -0.13229125738457
N         2.54405987065419   -2.49449429604162   -0.19393356176085
C         4.52248479822873   -1.18263838492307    0.30176665229858
C         4.91994299966640    0.12558802611029    0.36349928658218
S         3.64054660432436    1.20499293832628    0.20936958663802
N         6.25825436128293    0.41819154532772    0.35119039008590
C         6.82771745534926    1.07975719557215    1.56251638905794
C         6.96336726344305   -0.04539794015198    2.60910647127068
C         7.76802749021162   -0.92371967233556    1.65443635573743
C         6.89395391343930   -0.97501315150191    0.39012280846826
C         5.74001175887011   -2.02483759805196    0.32165015780593
C         8.89195656135622   -0.01465473874316    1.21392667524456
O        10.05687015610058   -0.34503044147305    1.04823151198769
C         8.29177065607209    1.37211693160502    1.19920854583279
H         0.38473606116743    0.44201438484904    0.02581736331687
H         0.90725434866570   -0.49886997117462   -1.45028653779995
H         1.29587143139311    1.17341178461797   -1.19519014567743
H         1.53039971787180   -2.47851841694057   -0.24642316499449
H         3.05751390778653   -3.23533191660510   -0.66163812468263
H         6.19701810445392    1.92504670214090    1.84871493581453
H         5.94053582368827   -0.37275074800985    2.82161970075603
H         7.57073564141561    0.27220802785103    3.46409694266189
H         7.98359797917782   -1.90381768763450    2.07532501681024
H         7.51531251619317   -1.07084724685977   -0.50922215946967
H         5.68829654257476   -2.70649020400183    1.17706146039483
H         5.89883704194849   -2.65363373875970   -0.56115873371279
H         8.38849278861338    1.96709531085800    0.28928029221253
H         8.78384654882043    2.00643866720374    1.94121800385609
