30
 energy: -45.976226330166 gnorm: 0.114580414263 xtb: 6.4.1 (79825abcba525fcdf90b791dcacef51065a7a4e7)
C         1.14085587160164    0.14161473308484   -0.17833872098023
C         2.61292705557364   -0.05119259684086   -0.06168763506573
C         3.22216139351439   -1.29495389885058   -0.07424312125581
N         2.58969734715920   -2.48350853307215   -0.07418221242717
C         4.60698968243134   -1.12534157971196    0.10347106469085
C         5.02854967364075    0.17137933490707   -0.01502923270426
S         3.74745536571021    1.25921081418374   -0.04888335528562
N         6.35994471998315    0.44774801325108    0.15186355184995
C         6.73290678376435    1.13604102635186    1.42324863139347
C         6.71513801327136   -0.00070730024822    2.46594382142809
C         7.63015302949058   -0.91524991401525    1.65558495008256
C         6.94149129657934   -0.96352355817627    0.28134368727583
C         5.78931837392356   -2.01293200421015    0.18315086933010
C         8.84377446385851   -0.06314754046435    1.36453694118938
O        10.01279635771346   -0.40594212797232    1.46203748240817
C         8.24804575400708    1.32060496344944    1.24658899117506
H         0.62513842859260   -0.30973400085015    0.67451778242544
H         0.85548240319257   -0.05138942562975   -1.21724964153225
H         0.81716110781630    1.16317406025774    0.04875071797865
H         1.67255527202168   -2.41122242362436   -0.50330039943086
H         3.12825209015992   -3.30825527331334   -0.32111255458566
H         5.99751953981193    1.92094846153830    1.61646236309701
H         5.71401971976167   -0.40768170134211    2.64098634837906
H         7.14190967085268    0.30398696560134    3.42813193152765
H         7.90999940819255   -1.92690130356241    1.94273906667989
H         7.72662433310824   -1.14983014351161   -0.46226106470045
H         5.84000472741660   -2.60407791897885    1.10349354302746
H         5.86906391732383   -2.68616518247861   -0.67729048847061
H         8.59207432222210    1.76513056508602    0.31097945621653
H         8.75274686186941    1.85778931937225    2.05392444925930
