30
 energy: -45.978587549905 gnorm: 0.107862556569 xtb: 6.4.1 (79825abcba525fcdf90b791dcacef51065a7a4e7)
C         1.15148430950251    0.22107307883599   -0.56265649039308
C         2.55465814242371   -0.11972043131957   -0.19832329799354
C         3.14563562785546   -1.32278451648834    0.15045843923829
N         2.50891051880179   -2.50752550304973    0.21081415790732
C         4.53001555317600   -1.17361580624659    0.34880400508752
C         4.96832174047353    0.10866710360758    0.15676627661646
S         3.73583863264078    1.14172853547170   -0.33261651348850
N         6.32203156343383    0.31632308478392    0.19132518678907
C         6.87645936701401    1.22942731298613    1.23445435997013
C         6.89902733000481    0.35888869189121    2.50778815087980
C         7.67033491505930   -0.75855716479730    1.81013383975823
C         6.85279351095037   -1.07600196750575    0.54681312704227
C         5.64575657017723   -2.03156725873519    0.80826896000318
C         8.87761441979705   -0.05914864457068    1.22964413084601
O         9.99027684702840   -0.55111078934202    1.11310125031885
C         8.37154024928639    1.32435656811610    0.89292812936523
H         0.76837480046211    0.92109524289681    0.18583562165660
H         0.43852387004133   -0.59216106244704   -0.39424578090906
H         1.25087244344906    0.75442665703717   -1.51428001039294
H         1.57712831782427   -2.65534102799639   -0.16395216358811
H         2.99747724478076   -3.36148111717116    0.46237996317910
H         6.32211223792078    2.16683368020518    1.32486558778574
H         5.94618154903531   -0.09931212261328    2.79176494183597
H         7.54162902222462    0.75585651414694    3.30167618802193
H         7.91018968485918   -1.57581973946335    2.48745325458492
H         7.51609039998480   -1.45155716469261   -0.24254584416504
H         5.56396410658864   -2.32727671871308    1.85942029948016
H         5.80686964497390   -2.92274148820896    0.19197953029207
H         8.45448594514132    1.56780683173369   -0.16781493474793
H         9.05342298948730    1.96592686386337    1.45728995218594
