30
 energy: -45.973925657108 gnorm: 0.115857376543 xtb: 6.4.1 (79825abcba525fcdf90b791dcacef51065a7a4e7)
C         1.09500739354746   -0.20690804961235    0.23237293988066
C         2.55539519807082   -0.03361643443997   -0.00217594524963
C         3.41515476016613   -0.74169334675740   -0.82540548303244
N         2.99627044661458   -1.77011528276567   -1.58669199015999
C         4.73913992140688   -0.36257398392660   -0.54004278025336
C         4.91990092507569    0.43922394017472    0.55434555702465
S         3.42640388839913    0.85855385889397    1.20192186957258
N         6.19480945233154    0.75844297105815    0.94106649154896
C         6.54873740049498    0.16366275010122    2.26403266276834
C         6.78611132031922   -1.33671003543210    1.99521883270370
C         7.74845193807953   -1.10641093564608    0.83281398282388
C         7.01194795150576   -0.08130112355892   -0.04572806846029
C         6.05645800301831   -0.54248767395232   -1.19148035032016
C         8.82608771030221   -0.37543742314004    1.59965376963360
O        10.04586408281716   -0.33324372728688    1.53647173305149
C         8.01867178107375    0.56258097267933    2.46670418092961
H         0.59518572721598    0.72929795002342    0.49834474902294
H         1.09397515292668   -0.90711940401912    1.07363836178142
H         0.60191515828142   -0.75895281264270   -0.57511575820220
H         2.01214518128500   -1.75504842296253   -1.83526339152869
H         3.65568019720710   -2.04509383532628   -2.30834880841218
H         5.81902952002411    0.36833136137342    3.05133361972794
H         5.86820027055899   -1.84177094094295    1.67763628564144
H         7.21944191182407   -1.87146720936374    2.84788404664082
H         8.03868931974734   -1.95948588397189    0.22270299701359
H         7.75132979991944    0.61752070377979   -0.45689055608158
H         6.22238656846606   -1.56058674727908   -1.55889731742697
H         6.14308305010038    0.14234584360548   -2.04204530722834
H         8.19367853252986    1.50138115663195    1.93816778794722
H         8.39690123799081    0.72405068737602    3.47959647227166
