30
 energy: -45.969261275197 gnorm: 0.135590195313 xtb: 6.4.1 (79825abcba525fcdf90b791dcacef51065a7a4e7)
C         1.00478567391609   -0.01417407271100   -0.04608553449332
C         2.49352585594885   -0.05187966041585   -0.04350947634291
C         3.29023643006804   -1.04583493233360   -0.58717428959308
N         2.74265425139328   -1.88136524708445   -1.48979032831652
C         4.63466159391520   -0.91580417487401   -0.19511177279438
C         4.91322026683949    0.24808429367599    0.46897327724022
S         3.48403853812911    1.03464393775401    0.87454640369289
N         6.22458758468004    0.55268652185916    0.72270315972487
C         6.73830588356476    0.62123899165025    2.12293959114036
C         6.91329562296548   -0.86149619664378    2.51101265164234
C         7.80352814598534   -1.18755135836243    1.31456112290234
C         7.07021289809458   -0.56939401883998    0.11237368632660
C         5.96801305839939   -1.42590375480638   -0.58758985062532
C         8.85715121516082   -0.11305550312179    1.45240694042291
O         9.99006745617812   -0.23460458553120    1.01041906293021
C         8.18246534630105    1.12838608303829    1.98831474293778
H         0.59844703926939    0.39127121876761   -0.97750777952068
H         0.71953483674486    0.69846548990526    0.73417168508425
H         0.65821256465902   -1.00389014673446    0.27058548541941
H         1.85470662370829   -1.67558763414038   -1.93669286020385
H         3.47921738617515   -2.20345202575744   -2.11024002929613
H         6.06870517849344    1.12957237569785    2.82110697390982
H         5.89141876118969   -1.25371708342606    2.49012384410197
H         7.39218382942433   -1.01120821459721    3.48519487319544
H         8.15653823743920   -2.21062109870303    1.20088526427590
H         7.79855017664609   -0.10250124927656   -0.56262854265984
H         6.28612100233663   -2.45435008726963   -0.38719345668978
H         5.93396212371109   -1.28221834939527   -1.67301908382899
H         8.33351357146706    1.96977588688403    1.30966056003483
H         8.54009493424316    1.39445966353138    2.98650646316685
