30
 energy: -45.975740040525 gnorm: 0.122761236786 xtb: 6.4.1 (79825abcba525fcdf90b791dcacef51065a7a4e7)
C         1.07966300883736    0.23991124736415   -0.21705442275541
C         2.53361070332100   -0.08228639074088   -0.21634262248326
C         3.19528961443548   -1.28661550901954   -0.04302583253120
N         2.70894559463486   -2.54152943289739   -0.07954216717561
C         4.58532866473478   -1.07275012336724   -0.03065219973029
C         4.96175166089664    0.23482207677499    0.11699927624794
S         3.63773419468458    1.24844604345607   -0.09576884266990
N         6.31158935551529    0.46530931753564    0.15773576885654
C         6.80096670102699    1.10800628946732    1.41341025475639
C         6.78741312886806   -0.09070757076902    2.38430011996546
C         7.67778197543155   -0.98319970523936    1.52347302824905
C         6.95336884887226   -0.92561146747952    0.16810090167514
C         5.77789837337411   -1.94657812680872    0.04852409484492
C         8.88930955125853   -0.08618498532932    1.62944433507185
O        10.05721182144435   -0.44047804983499    1.69353324783167
C         8.32563873128545    1.28793928240587    1.35081713741103
H         0.49373591613021   -0.56761885009700    0.23197671214416
H         0.73471283921353    0.44770817894386   -1.23482372026760
H         0.99758194634585    1.17191316278781    0.35265295676327
H         1.69781936363408   -2.61823152354344   -0.03202556215555
H         3.10143895132184   -3.26839516786647    0.51108306310363
H         6.22986217365311    2.03117348931448    1.53913840519169
H         5.79355946566989   -0.41850704615177    2.70571618775937
H         7.29868165390278    0.18636088538128    3.31307144201723
H         8.00598114654062   -1.98986994392928    1.77469077188489
H         7.66147234636885   -1.05279149605164   -0.66045612021030
H         5.70655590180901   -2.65724030892634    0.87853780293450
H         5.84327707833128   -2.62153804950709   -0.81177604048189
H         8.66322527062620    1.60073038015507    0.36110964185353
H         8.70101687923751    2.11558034331339    1.95842087861355
