30
 energy: -45.972502756820 gnorm: 0.120833041122 xtb: 6.4.1 (79825abcba525fcdf90b791dcacef51065a7a4e7)
C         1.18197669216908    0.28256495644684   -0.54174037348875
C         2.57107011573643   -0.06597212771532   -0.13343036174469
C         3.21090615731633   -1.29254545246094   -0.06714312174924
N         2.57074601700202   -2.46671496505634   -0.22268677213032
C         4.59738924706567   -1.14022162001548    0.11330667556901
C         4.97319472568613    0.16587706938975    0.27491333869724
S         3.68425357277746    1.23560815341497    0.13337833336077
N         6.32773437287225    0.36935420436478    0.30070099615030
C         6.83766950001839    1.06143231840623    1.52146388751698
C         6.83273296764964   -0.14070505567003    2.48819399853081
C         7.79029307493290   -0.93927282691637    1.60746116353888
C         6.91246614648599   -1.04570247642080    0.34920165528073
C         5.73930865696006   -2.07194209112361    0.25467064171851
C         8.91649496064446    0.03166081365511    1.33797727682090
O        10.09595491756932   -0.27033125826099    1.23166795396478
C         8.30605689322566    1.41003388741931    1.23296088383422
H         0.37211401885030    0.46159920786242    0.17178157491259
H         0.72773684956517   -0.48654848835443   -1.17431858872577
H         1.15358821583185    1.21996115439329   -1.10779145857124
H         1.55618985783707   -2.48865376413741   -0.24936597456426
H         3.00933184545603   -3.32203268599125    0.10487552130086
H         6.10014100591230    1.80328295857795    1.83755718377080
H         5.82499575067472   -0.56285862781277    2.55717188495086
H         7.31159128658588    0.04224447236902    3.45669943583255
H         8.10297896166358   -1.91515639080567    1.97364257075570
H         7.40278417916752   -1.21989153414650   -0.61689277649179
H         5.56404990738575   -2.56578777536617    1.21615596872482
H         5.70835256080086   -2.79177179757602   -0.57046480099914
H         8.34650761136960    2.06297189004658    0.35925637303495
H         8.74265542147812    2.04328507137876    2.00978483164520
