30
 energy: -45.976650274759 gnorm: 0.111219208353 xtb: 6.4.1 (79825abcba525fcdf90b791dcacef51065a7a4e7)
C         1.12757942073333    0.21029563638130   -0.09217575165858
C         2.59541511115228   -0.01443847666451   -0.20499618966358
C         3.26824517097655   -1.22442532115355   -0.24369403611537
N         2.74855851269707   -2.36700111950038   -0.73064265806192
C         4.65048110705802   -1.05774625686528   -0.04434107224301
C         4.95370811346999    0.25890618232852    0.17410742722523
S         3.63970994409417    1.30684594177087    0.20504178007487
N         6.28410004369435    0.49982566658214    0.39515161673195
C         6.71856564074084    0.93546465884282    1.75556560663993
C         6.76768023144509   -0.41767250825904    2.49470922236325
C         7.77714534352745   -1.01821503538972    1.51969588179176
C         6.93904352136557   -0.87604912548845    0.23809589989965
C         5.83280443689046   -1.94846231748074   -0.01600506397413
C         8.89108075423694   -0.01394657013450    1.33460911874780
O        10.05203295082679   -0.23377050695256    1.02236867923759
C         8.20975840625765    1.29425783510139    1.66320686481732
H         1.07349290360399    1.29158697447948   -0.25006187017088
H         0.66416978428625   -0.09522054008883    0.85118836029337
H         0.60268429812429   -0.35157284015983   -0.87238101337505
H         1.73953910734041   -2.42612575213706   -0.63629566268551
H         3.20265776484760   -3.19375156842866   -0.35447713689251
H         6.08124967054972    1.76480738396837    2.07214829522897
H         5.88947868330020   -1.03312562294943    2.27451525451313
H         6.96856963900973   -0.40310413079883    3.57183957699260
H         8.05524765746251   -2.04625118694465    1.74332676671059
H         7.59182764312767   -0.90386322080509   -0.64348863227003
H         5.84354481397820   -2.59952950264260    0.86436379477827
H         5.87400372685503   -2.57764778329902   -0.91176719014474
H         8.37729496047215    2.03954966804972    0.88359449640532
H         8.43668637735516    1.67362137578787    2.66304073816606
