30
 energy: -45.977603043837 gnorm: 0.120209590798 xtb: 6.4.1 (79825abcba525fcdf90b791dcacef51065a7a4e7)
C         1.16075211216021    0.22312192065199   -0.42475582895955
C         2.59006358641322   -0.06115898544518   -0.11811470525303
C         3.21923067639703   -1.29502026294820   -0.11930058800776
N         2.58400721942318   -2.46804350435065   -0.30145579277814
C         4.60432454586748   -1.11130237734817    0.04151845049712
C         5.00331920813623    0.19783286572682    0.05595636186102
S         3.70124807044083    1.26072350952966    0.03145546146807
N         6.33122131638414    0.41307972133854    0.31516748300500
C         6.83837217993993    1.08118389881225    1.55036091372304
C         6.82191110323563   -0.09358944176605    2.55004205344269
C         7.74330238983921   -0.97943933719152    1.71539827766479
C         6.89916739104424   -1.00497151906543    0.43013231641870
C         5.72755125338014   -2.03227267450722    0.32829752960573
C         8.86526376356909   -0.03356215699852    1.35458887856753
O        10.00404210763960   -0.34351000337396    1.03718867524951
C         8.32827840141330    1.37855863587513    1.32086953263332
H         0.53550044813535    0.02928336167150    0.45190336515400
H         0.68336591958292   -0.51001834655880   -1.08250372700053
H         1.02961652529053    1.27399991390940   -0.70473845480005
H         1.57102583888333   -2.53229481944814   -0.28540012446238
H         3.06218186975268   -3.26969791102254    0.09844694850669
H         6.24569210962710    1.97608284301892    1.75552387908504
H         5.77991358910424   -0.41230056951251    2.65573161910028
H         7.10516008076788    0.10704605272157    3.58941398849696
H         8.07607581361190   -1.97406858268207    2.00554398326282
H         7.61292233789783   -1.00412338069323   -0.40332146789030
H         5.53002339811081   -2.70332766907037    1.17074704067927
H         5.96929774721026   -2.69184751321285   -0.51222686444076
H         8.40138336460313    1.74968524362306    0.29703137502326
H         8.69786833006796    2.14258149902869    2.00989285089528
