30
 energy: -45.973651474292 gnorm: 0.132313283434 xtb: 6.4.1 (79825abcba525fcdf90b791dcacef51065a7a4e7)
C         1.13027343349746    0.19704845473684   -0.33140745958320
C         2.57751027853667   -0.14493489490316   -0.25185501033030
C         3.25909297850402   -1.34712589084603   -0.15994143518004
N         2.62071561586741   -2.53209901439387   -0.12854205438778
C         4.61587057920756   -1.06838860866659    0.08410798645790
C         4.91780598612085    0.26516142800144    0.14509645163913
S         3.58285597879969    1.25826682558788   -0.09443689458409
N         6.26290280034305    0.46508833641177    0.31119710557576
C         6.82853240949173    1.11326071324012    1.53152645621136
C         6.89508695313433   -0.01634845097557    2.57999170608353
C         7.73783199914198   -0.91833765942134    1.68192799447303
C         6.95772404112918   -0.89938988119726    0.35671218714988
C         5.78994924456038   -1.93576570683983    0.33162166041131
C         8.93564506327623   -0.06881418542346    1.32525150486717
O        10.01168792150495   -0.58824567171606    1.06844540238523
C         8.34376983088026    1.32040375454247    1.38298049961419
H         0.66575210252606   -0.08517163654224    0.61812722675123
H         0.57306617521008   -0.46603912930157   -1.00063047859421
H         1.05261193974679    1.27382869298898   -0.51699941967998
H         1.73286765939353   -2.53594914831479   -0.62070916989338
H         3.10860266172720   -3.38893810151500   -0.37147413843052
H         6.25038853160310    1.97935114301106    1.86295164603076
H         5.90734895046730   -0.40555680315373    2.84719272590232
H         7.24774490254638    0.30031841886604    3.56798617408157
H         7.93675991252923   -1.91804281046308    2.06301501205304
H         7.53837926342832   -0.99330574643562   -0.56963082781269
H         5.65183941000864   -2.46181082893951    1.28201917564695
H         5.89458314272201   -2.69334045047080   -0.45265752819669
H         8.56156192102572    1.91109165484247    0.49136495459834
H         8.64450943062930    2.02257288951519    2.16502588492125
