30
 energy: -45.973075024818 gnorm: 0.123820871934 xtb: 6.4.1 (79825abcba525fcdf90b791dcacef51065a7a4e7)
C         1.06200578465831    0.21562099356762   -0.08490155333758
C         2.53653008201917    0.00740319567858   -0.07078873524706
C         3.25498484465364   -1.05240529210914   -0.59889387124235
N         2.85271033127170   -2.09201671617608   -1.35391453423760
C         4.58949834891011   -0.92831294624402   -0.17254323963549
C         4.94657853249267    0.26144291528756    0.40210014672495
S         3.55630228418007    1.13555803772534    0.76096053413098
N         6.27565279099012    0.51468207584491    0.61722146294701
C         6.75535658011301    0.70026590444945    2.01890292580452
C         6.90424703841663   -0.79510981405257    2.36734063829127
C         7.85860252000976   -1.08219846223809    1.21100682101243
C         6.94361224941623   -0.73066393417380    0.02595801765458
C         5.81626563559754   -1.72876983082072   -0.38789775617805
C         8.88582403499981    0.00709796536895    1.41573504604016
O        10.08895973693518   -0.06648464937093    1.21405024513815
C         8.20446986996676    1.21111402320002    2.02374593946990
H         0.64999063336718    0.63853163047146   -1.00600659161881
H         0.67060926398940    0.65982949298093    0.83570265254553
H         0.60100682006070   -0.77779048223021   -0.10824603978209
H         1.85433207993492   -2.12669242777878   -1.53434666064539
H         3.11987361152193   -2.98929986056344   -0.96055753883547
H         5.99347859801699    1.29302959469859    2.53113214928549
H         5.90343775961552   -1.22158403566844    2.24483997466139
H         7.43266166778648   -0.93987459828586    3.31633997425177
H         8.21177985028625   -2.10965671288094    1.27269424291759
H         7.51947688210958   -0.41927290059160   -0.85467108044539
H         5.73479272705825   -2.70511355674724    0.10115063804011
H         5.85098355934762   -1.94006112519771   -1.46219391800081
H         8.27422077844337    2.09654872589108    1.38934538146534
H         8.69011117596491    1.49737593985499    2.96038216729528
