30
 energy: -45.976481192177 gnorm: 0.125246343230 xtb: 6.4.1 (79825abcba525fcdf90b791dcacef51065a7a4e7)
C         1.04550988464906   -0.03659570958095   -0.04519650786289
C         2.52984928524849    0.00795309832244    0.06673040898040
C         3.35046298684453   -0.77079859924958   -0.73227222426360
N         2.84754459955759   -1.49216841619445   -1.75176795818386
C         4.69839960680190   -0.61041826120636   -0.36424361743568
C         4.84784792515369    0.27883023502425    0.66538863501665
S         3.39559895575597    0.70637892999027    1.39607399866886
N         6.15712627181672    0.51793797289579    0.99013979540874
C         6.62840797219273   -0.02636156660823    2.29815338991481
C         7.04251809707717   -1.48343168609499    2.00628831652263
C         7.93149042380863   -1.08710712212123    0.83028779838135
C         7.04608062011987   -0.18197702741425   -0.04258869716250
C         6.01041501411300   -0.83282543532291   -1.01325623547412
C         8.85978143650196   -0.10323098151571    1.50402953237267
O        10.05693778371112    0.04625500281024    1.30884424769749
C         7.97968260346796    0.69093223819764    2.44120946825317
H         0.71915939786075   -0.10978916294960   -1.08691741519487
H         0.68913810319585    0.94789282265680    0.27387401706129
H         0.51550157292004   -0.80149102435401    0.53269424192988
H         1.99603540121399   -1.04846692775487   -2.08128025220446
H         3.39136809302512   -1.44233880062354   -2.60791981269740
H         5.97283000676235    0.11372477661872    3.16117075698010
H         6.15703856225877   -2.11312444152578    1.87242676175339
H         7.63762128955582   -1.97919120622882    2.78143558814711
H         8.43239397744830   -1.85842731255259    0.24859130188972
H         7.62546681539010    0.60868261605095   -0.53580368402042
H         6.32264300116318   -1.85245485228362   -1.26209910888370
H         6.06865306003718   -0.32903496917800   -1.98421714464210
H         7.93679829264830    1.73863295313650    2.13821109269067
H         8.25356929115855    0.68111436007929    3.49949604298600
