30
 energy: -45.976865390202 gnorm: 0.116208077987 xtb: 6.4.1 (79825abcba525fcdf90b791dcacef51065a7a4e7)
C         1.05108778684410    0.02510573983070    0.10146925542559
C         2.53443023391960   -0.08163234695132    0.02350859484063
C         3.30259767025496   -1.01056376497439   -0.65859952671303
N         2.89040992012240   -2.11226480590875   -1.31360253957719
C         4.65591368035295   -0.82520943181310   -0.32351806856080
C         4.88695183377954    0.29529633498354    0.42769992182210
S         3.47509658439526    1.05353414994106    0.93511122763363
N         6.21017144473334    0.63350265060386    0.53518000879281
C         6.73848080166870    0.78609061095048    1.92329892772222
C         6.79773650446127   -0.70078814166330    2.33000039459389
C         7.77910208579637   -1.09662190046452    1.22974614964726
C         6.94786720937969   -0.61062063503933    0.03058989182651
C         5.89800232527903   -1.58541598754956   -0.59066698205033
C         8.90210056790679   -0.12119010055355    1.49633872714089
O        10.08684541018431   -0.42071669687986    1.47930487025784
C         8.22841482077576    1.16160418350755    1.92547943737422
H         0.65292743333563   -0.13295080918178    1.10821194171699
H         0.54271756024336   -0.74887576583668   -0.48208611073884
H         0.77923652912280    0.95773571736897   -0.40472199715583
H         2.00409926224056   -1.90900748791290   -1.76488644165804
H         3.58079855916404   -2.42222864738515   -1.99073540901301
H         6.20959321461138    1.52632379112071    2.52872306630516
H         5.89696829149960   -1.26208960931585    2.06155454277902
H         7.17387976137583   -0.81263353133328    3.35312573471812
H         8.11530514785310   -2.12740987113688    1.13672099579875
H         7.58926813923934   -0.22640450195952   -0.77257563574884
H         5.87496379547916   -2.57158997519583   -0.11528994822901
H         6.00584024144661   -1.57095535118097   -1.68067774215792
H         8.36971083110750    2.00398191692400    1.24595087961095
H         8.57411193590306    1.52918639264874    2.89525137379645
