30
 energy: -45.971710177314 gnorm: 0.110425850195 xtb: 6.4.1 (79825abcba525fcdf90b791dcacef51065a7a4e7)
C         1.07354839720888    0.12059875468942   -0.11374290256602
C         2.54502978876116   -0.07226457824395    0.01003896380901
C         3.34748640324222   -1.11080614620708   -0.43240998324132
N         2.83594961359055   -2.32302623811769   -0.71793656530029
C         4.73196385895215   -0.87612369903460   -0.35337603467385
C         4.98701068969155    0.35489642636269    0.18771621703999
S         3.58359227023366    1.19714092734301    0.57081801775156
N         6.29894405335518    0.67241220942596    0.42193872359471
C         6.66454721305289    0.81272220994599    1.86274246355837
C         6.62083907168922   -0.63795860085244    2.38556224919540
C         7.66010124286920   -1.07209630654465    1.35513478343509
C         7.05283175432009   -0.60015901732061    0.02336027837577
C         5.98107924794077   -1.67096646162916   -0.35495220487502
C         8.81394828401628   -0.10415778457052    1.47921703385027
O         9.95366302326966   -0.37114914844223    1.12794421107002
C         8.14867605943714    1.20852671725575    1.82250651835367
H         0.94878562788307    0.67719404134277   -1.04738111289312
H         0.70896215273853    0.84117448682328    0.62508861233161
H         0.47394646151836   -0.79346421893267   -0.18372698472735
H         1.84463981875787   -2.33046592213667   -0.49938034043826
H         3.44147435346594   -3.12119315426403   -0.55212840336266
H         5.97258638818144    1.47786048787222    2.38522395761622
H         5.63362945808206   -1.09967430339170    2.28192019721143
H         6.95787414034321   -0.73922344286088    3.42331530083836
H         8.05242807014368   -2.07793539659436    1.21883584884698
H         7.81673350653694   -0.48749300860541   -0.75628870506658
H         5.99110811769885   -2.48520396891225    0.37714747176704
H         6.26155845791216   -2.12485230259213   -1.31165521519390
H         8.44758819724393    2.01162852150273    1.14648662724513
H         8.64806953176701    1.38827435530956    2.77821449060841
