30
 energy: -45.973180483380 gnorm: 0.114273845969 xtb: 6.4.1 (79825abcba525fcdf90b791dcacef51065a7a4e7)
C         1.13262639319665    0.21599715042426   -0.00825175589850
C         2.56255149102011   -0.12321786461404   -0.24913158911842
C         3.27136414860903   -1.31310552941913   -0.24485942422654
N         2.67373160760400   -2.49474645712664   -0.00148121883378
C         4.65327678301997   -1.11460514315768   -0.07452114380062
C         4.99678953621816    0.20604822607613    0.03090161924821
S         3.66847493611958    1.21049620772186   -0.19798843828546
N         6.33087608444359    0.43710734803399    0.23987628111080
C         6.83429353281699    1.17898332201521    1.43380212699914
C         6.68095897177814    0.06894826072499    2.49400796827070
C         7.54289501394677   -0.92675319977938    1.72201895555220
C         6.94543739479531   -0.96455837508662    0.30542460887035
C         5.83333091013229   -2.00773142715955   -0.03134164837088
C         8.78949983966338   -0.09002511160834    1.55018501658682
O         9.92654279263562   -0.50768859345877    1.38795920626583
C         8.36084258018717    1.35244304578670    1.41193170457306
H         0.81413751620518   -0.12618312018103    0.98095088888335
H         0.47922760781875   -0.16532295951539   -0.79925714548988
H         0.97898356720497    1.29490953376366    0.10253326984043
H         1.74517447679092   -2.69096823496432   -0.36175328872565
H         3.16445149065512   -3.36957070410454    0.15694708429453
H         6.31481207819610    2.13612722718632    1.52446742416412
H         5.66012629720329   -0.30731682847552    2.61579105981369
H         7.15866807717450    0.27706002879766    3.45799038847047
H         7.79785752896675   -1.93292794789789    2.04884690843961
H         7.69759972193849   -0.95010724206654   -0.49340894997392
H         5.65577410318532   -2.74826537501997    0.75551048897037
H         6.08596072447378   -2.38423970479715   -1.02852833446672
H         8.77536008900634    1.75667503466593    0.48667735867363
H         8.82515948122309    1.82012024639521    2.28415222558902
