30
 energy: -45.977955878485 gnorm: 0.114481077732 xtb: 6.4.1 (79825abcba525fcdf90b791dcacef51065a7a4e7)
C         1.09671529797769    0.21996777116154   -0.42423420188975
C         2.50849578259896   -0.07917668952209   -0.05658742464978
C         3.18143948045734   -1.28957039252335   -0.07556476467023
N         2.60545382869896   -2.48158989078504   -0.32051970390801
C         4.56315990563813   -1.13494486895167    0.13666072870838
C         4.92692636874857    0.18061011610525    0.23780078218756
S         3.64140247323418    1.23222349260869   -0.02155163678189
N         6.27629155954110    0.39753941216336    0.33267375034174
C         6.80377870966393    1.12420663613142    1.52556102400810
C         6.87733630305002   -0.04591045811020    2.52812823501055
C         7.75456164296940   -0.89985868288979    1.61622346708706
C         6.90084133318502   -1.00121576235273    0.34107141537853
C         5.73361854489040   -2.03451755372936    0.25007289556337
C         8.93019603652447    0.00909463243610    1.34172022249316
O        10.08867899491291   -0.37381065547757    1.27152442283198
C         8.29931318863612    1.38104048854889    1.28404172533367
H         0.32636661117939   -0.29073608802888    0.16124751933346
H         0.91145663996420   -0.01018072175478   -1.47814853586639
H         0.86178544956920    1.28926468989713   -0.38758131661725
H         1.60871547909863   -2.65733525462299   -0.39890034339224
H         3.07148579766621   -3.19632096311760    0.23011327550233
H         6.21935414552898    1.98367910967801    1.86314156996977
H         5.99263617414755   -0.61662096008988    2.82829667469020
H         7.50015214808488    0.12424838448039    3.41352362343101
H         8.20918130325647   -1.84745430847645    1.89834668938471
H         7.53273238208590   -1.12924088438163   -0.54685613025296
H         5.78603547348912   -2.62685310827065    1.16955334241214
H         5.82446448879301   -2.76551274296019   -0.56070120469779
H         8.55327939062927    1.84223656216488    0.32794381271230
H         8.83689450600129    2.05187405935929    1.95937085387759
