30
 energy: -45.982564606222 gnorm: 0.110310358216 xtb: 6.4.1 (79825abcba525fcdf90b791dcacef51065a7a4e7)
C         1.09386370241805    0.09741778553318   -0.11202326800645
C         2.58013432950276    0.01661737379940   -0.06462476947371
C         3.34622075036280   -1.00937418031542   -0.59256340409335
N         2.88333274848846   -2.11949805869281   -1.19756964159357
C         4.69674202063589   -0.83008645275483   -0.24320935391713
C         4.95899415626797    0.30797105111365    0.47043566219771
S         3.54097822098691    1.12007990896507    0.86468947746729
N         6.27999601723656    0.60959517094589    0.67248168019393
C         6.70798872112618    0.63508367317768    2.10267067946089
C         6.80430703398528   -0.87309304085180    2.41226965939437
C         7.74228110251474   -1.15929829145535    1.24239215587595
C         6.99761479411867   -0.58034735843094    0.02772665464260
C         5.94121051735175   -1.56214972896148   -0.57100238779145
C         8.79474372954676   -0.08219406533270    1.36822254872087
O         9.90978488681229   -0.07086253108759    0.86804109580323
C         8.18384076208365    1.06041756404528    2.14591891220626
H         0.84790300508434    0.87332623667688    0.61908122456992
H         0.48544954226536   -0.74845137185388    0.22318130787692
H         0.58896756525343    0.41290222544000   -1.03152358631167
H         1.86903370293037   -2.16007240118206   -1.18929594151855
H         3.27901751450277   -2.28552231589747   -2.11794591943634
H         5.97710469309050    1.23226445105375    2.65347852399293
H         5.85628011174369   -1.41776532430227    2.35674538251150
H         7.29310115084055   -1.11686596318026    3.36223475148540
H         8.19192605284256   -2.14436427055365    1.13434377770306
H         7.73282218384324   -0.21100859004254   -0.69832501295438
H         5.93411962041934   -2.54571437760295   -0.08975034139192
H         5.92738977494672   -1.75834027056594   -1.64862933819490
H         8.41034288598814    2.02820616012123    1.69491349158846
H         8.56023294516012    0.89657229826850    3.15911407369228
