30
 energy: -45.972529062820 gnorm: 0.123823978023 xtb: 6.4.1 (79825abcba525fcdf90b791dcacef51065a7a4e7)
C         1.10971472043107    0.18833178419464   -0.13868660667317
C         2.55944239915822   -0.08957066533934    0.05838083829011
C         3.26536137896652   -1.27563203411795   -0.05652386872425
N         2.58195238117019   -2.42151303359438   -0.23702801991972
C         4.65528898581539   -1.13098893731767    0.10247192095322
C         5.00218712758439    0.19295426696026    0.11120880581898
S         3.68046241745428    1.23158325720207    0.10677444300162
N         6.35786816597933    0.38799432332474    0.08064889038478
C         6.86145772681178    1.13796849667879    1.26943157903952
C         6.67263760013445    0.08465094486571    2.38055481247208
C         7.61309221441220   -0.90503393893476    1.69762646976070
C         6.93063719282561   -1.01184963907244    0.32359228990232
C         5.80856062825362   -2.05630469079020    0.02616972486539
C         8.86830530453613   -0.07828416250180    1.54081673423771
O        10.03111430855543   -0.42573237540886    1.68497509793583
C         8.38619063194020    1.30987512020304    1.18846086845144
H         0.46297868592150   -0.46907391169537    0.45003626962557
H         0.90589310243584   -0.12355909434332   -1.16786363037114
H         0.85378929772851    1.23999285184852    0.02996257138201
H         1.65276313945812   -2.36083094449564   -0.64130802712690
H         3.06357329736370   -3.28069173741335   -0.48416408975007
H         6.34635696162827    2.06263277152653    1.54122710245159
H         5.61492726521201   -0.19720910256586    2.39815161328480
H         7.11820056871558    0.36859812345537    3.34056848056597
H         7.80632201582659   -1.80689132359563    2.27514315338218
H         7.71236122159555   -1.34462407861437   -0.37085768557569
H         5.74250783282212   -2.86500658811713    0.76148700542370
H         5.84049430576202   -2.49482353476741   -0.97714630059827
H         8.57431117274548    1.46604252315491    0.12471923091600
H         8.78393874947706    2.18335415595060    1.71182650853690
