30
 energy: -45.970480478090 gnorm: 0.115082347375 xtb: 6.4.1 (79825abcba525fcdf90b791dcacef51065a7a4e7)
C         1.04374832552711   -0.01744809972864    0.18374137023766
C         2.51100690791071   -0.26161931921413    0.11088282747504
C         3.39522731275926   -0.78311411054719   -0.81888259853522
N         3.09496264484733   -1.52296348851295   -1.90291991985893
C         4.71649498848317   -0.53247004871915   -0.40714320137985
C         4.79179975740096    0.23645485278195    0.72260188663050
S         3.29413909446475    0.81369677538694    1.22213202647857
N         6.05586481291385    0.62088680039351    1.08481347274929
C         6.67514170193778    0.13995462423017    2.35543079374891
C         6.92475441044364   -1.34982375479752    2.04241381920990
C         7.80219977924976   -1.10622678342027    0.81723125665596
C         6.92332543235159   -0.10361438169069    0.05076362618881
C         6.03582453609408   -0.82708753044508   -1.01099487558784
C         8.83699996679032   -0.19326515488543    1.43314847638575
O        10.01541305450626   -0.08551394373640    1.12760151693429
C         8.13135949078631    0.60749310258001    2.50293029498882
H         0.73000044831846    0.85801657608184   -0.39259901840717
H         0.87820122549526    0.30235553215492    1.21734879724394
H         0.42954042719306   -0.85727153890644   -0.15886134576781
H         2.23871080635794   -1.33404945284090   -2.41444858000361
H         3.87857149833075   -1.83924268320315   -2.46607853294507
H         6.06384636099785    0.35787044360298    3.23465564037206
H         6.10960333723582   -1.95229380909898    1.62881443710518
H         7.40555401428323   -1.74756849735186    2.94319651394972
H         8.18113718683204   -1.97762755561317    0.28687557162840
H         7.54850931119819    0.59491421852123   -0.51958272994019
H         6.25126981119181   -1.89812635499047   -1.08524043787602
H         6.17412748160043   -0.41496466697986   -2.01647418059380
H         8.20845772276982    1.69612404148611    2.48673118888143
H         8.63648894475217    0.28901200090844    3.41862391548401
