30
 energy: -45.973839203067 gnorm: 0.113180204692 xtb: 6.4.1 (79825abcba525fcdf90b791dcacef51065a7a4e7)
C         1.05972063704553    0.12315646937615    0.16978653837586
C         2.52740532140769   -0.11923827928999    0.09962847042378
C         3.34914982982841   -0.80687890010682   -0.77795493093140
N         2.90540412851805   -1.41771864625036   -1.89269141921593
C         4.71575961968790   -0.66748029581455   -0.47621703373446
C         4.86161878008099    0.12789379584466    0.62802270984644
S         3.45973716901864    0.89099444949433    1.15540433314073
N         6.14534931614537    0.47683842249080    0.95531333339929
C         6.59151768801209    0.12315423995544    2.33557028997161
C         6.97996001568397   -1.36167324519501    2.18024597702897
C         7.90681436411710   -1.16490309137892    0.98335638520148
C         7.04249325596118   -0.33705468962926    0.01757151141879
C         6.05889664107854   -1.09533443321477   -0.92897584149459
C         8.83717256918912   -0.08578115666419    1.48693740520414
O         9.93433351097051    0.24734259204741    1.06397983325414
C         7.98539870938284    0.76659414336306    2.39881077579553
H         0.43936829660799   -0.49755863215514   -0.48360470232434
H         0.88924569457839    1.20347390108074    0.12646147684333
H         0.80167129840494   -0.22979957725637    1.17415894524270
H         1.91779943358488   -1.40721507701876   -2.12730585691800
H         3.32878768686192   -2.25198715676976   -2.28761597651465
H         5.86197592526985    0.45045068538095    3.08045382224060
H         6.10626874468839   -1.96161012535226    1.90593741181655
H         7.56047394631818   -1.89494357254595    2.94143250916618
H         8.33410054745281   -2.03345918592698    0.48611716219425
H         7.79389225056093    0.27507934217474   -0.49699970217199
H         6.14363199964558   -2.18549567444357   -0.87048122625366
H         6.12474472947232   -0.73749956070378   -1.96221338221315
H         8.10186465105052    1.78957482927739    2.03649866264161
H         8.29304138946099    0.66416536730719    3.44281513807062
