30
 energy: -45.969446802336 gnorm: 0.123179403800 xtb: 6.4.1 (79825abcba525fcdf90b791dcacef51065a7a4e7)
C         1.12361707261397    0.26972955101065   -0.27543295940534
C         2.56762942819719   -0.08637055489746   -0.19929674565126
C         3.18891698342953   -1.32414257690661   -0.21302503882180
N         2.51955984270472   -2.49215834760108   -0.23233961501066
C         4.57154863651219   -1.18045803495722    0.00094811323581
C         4.99708956247877    0.11032344869241    0.16231211852765
S         3.68893726468627    1.16384749643788    0.22977092690476
N         6.34337750541413    0.36368254306583    0.14952340313103
C         6.82933397713139    1.12084402815290    1.34108573065892
C         6.82379366826957    0.05059790169095    2.45206200353935
C         7.66638222384921   -0.90729517529247    1.61372582279959
C         7.00687067793070   -1.01478581834344    0.22858515764502
C         5.80191301813765   -1.99879490994181    0.09365735442229
C         8.88233837652573   -0.01444010332900    1.52470423349353
O        10.05321155659541   -0.34179969924727    1.64927696434036
C         8.33969750583349    1.35338493038906    1.18094418644416
H         0.62614243706813    0.15056348708667    0.69170860597730
H         0.53498843789270   -0.36448845002054   -0.94573765128426
H         0.99342511394485    1.27021038737746   -0.70207041491240
H         1.64065203685374   -2.52410087155194    0.27462984515717
H         2.83911858461710   -3.15571246552180   -0.93148275360537
H         6.17909604547535    1.99472050896261    1.42904112951297
H         5.78330114921001   -0.20704520966260    2.67455072616481
H         7.31577984482259    0.41688200723034    3.36011715523875
H         7.80546042515967   -1.84946190636747    2.14021335661611
H         7.78552508673206   -1.28102268715105   -0.49729864818222
H         5.81928880095520   -2.71116104964585    0.92509334148374
H         5.82866302968321   -2.63134641612536   -0.80028034805326
H         8.68813457653166    1.60294875128008    0.17713475475518
H         8.55279684947803    2.16923604798967    1.87668580964742
