30
 energy: -45.978270860443 gnorm: 0.126463835934 xtb: 6.4.1 (79825abcba525fcdf90b791dcacef51065a7a4e7)
C         1.15668227317977    0.13250292059554   -0.55263770458186
C         2.57304370988419   -0.07778981794245   -0.14340313628039
C         3.21213968979475   -1.30186390437197   -0.03632734107513
N         2.49076718916020   -2.43501175565778   -0.12726989694271
C         4.57277259895758   -1.07107295900836    0.23480673475150
C         4.94644593908682    0.24431877512375    0.29271271261563
S         3.65527197301349    1.27137886012413   -0.02937956738204
N         6.30212137252862    0.40402494366854    0.40883197944822
C         6.82396611447395    1.07775975934717    1.63481218420604
C         6.97557302270785   -0.10159293405878    2.61759818284305
C         7.78677083965431   -0.98317289323722    1.67150249525699
C         6.91112764821327   -1.00159171673099    0.40736874934921
C         5.70911539852947   -1.99785562295129    0.43941784427519
C         8.86831059417987   -0.00310718310381    1.27982999356456
O         9.99137895374735   -0.27467048825294    0.88158697253800
C         8.26713430449908    1.38120602169854    1.20341385979095
H         0.40200648268006   -0.26182435713678    0.13439564419920
H         1.07377939473678   -0.25950161257439   -1.57120732682037
H         0.92844978188901    1.19331789293634   -0.70268067094138
H         1.51612946211327   -2.46139549048073   -0.40994019453252
H         2.90813037132755   -3.35449087749762   -0.23492262703557
H         6.30917005799139    2.00397587739472    1.90185965560329
H         6.07783976833844   -0.68807175568153    2.83810551418314
H         7.58100392944583    0.07151675986988    3.51440644229816
H         8.05412435649355   -1.99888925435574    1.95619950614267
H         7.52066960899545   -1.09204161225790   -0.50057919614497
H         5.74710585110148   -2.63840608298193    1.32671997699962
H         5.86963658686192   -2.68962482505592   -0.39463845745321
H         8.44624690378516    1.87140522483196    0.24479647736537
H         8.70869320966103    1.95515169248720    2.02237227260963
