30
 energy: -45.977727258695 gnorm: 0.125812812233 xtb: 6.4.1 (79825abcba525fcdf90b791dcacef51065a7a4e7)
C         1.02461432564603   -0.11153950585230    0.21782313794162
C         2.51004521421438   -0.18536801538302    0.14153351715920
C         3.34007222400692   -0.77327616033668   -0.79851192406100
N         2.79948793269025   -1.21383141927347   -1.95018572951400
C         4.69693241871107   -0.55631210445413   -0.49858351967189
C         4.91288316703255    0.31117744984057    0.53778870880454
S         3.45963020572834    0.70838556190364    1.28344786829805
N         6.19123287408822    0.64127711139390    0.90344132834349
C         6.63244735330372    0.14717675765025    2.24152301823102
C         6.89541963876158   -1.35142148928002    1.98701444093246
C         7.88180351125925   -1.07891902755561    0.85426935211254
C         7.06011832886745   -0.16317882060086   -0.06843196019630
C         6.04714856258680   -0.91472058485745   -0.98901850843322
C         8.86319810153092   -0.15744874852324    1.54087081464313
O        10.06522056666995   -0.02214303952700    1.36633992537488
C         8.05102080370295    0.67526656112036    2.50550994718167
H         0.66986847331167    0.90578265910086    0.02741473324254
H         0.73552572601872   -0.27472957443905    1.26080985865673
H         0.64358784568233   -0.70385104451277   -0.62117461232101
H         1.80604716369766   -1.37954009144177   -2.07720290806449
H         3.19445139580239   -1.95662075004883   -2.51894829933488
H         5.89148171694245    0.40772621433008    3.00131873419511
H         5.97760255705368   -1.89463893374732    1.73996687680085
H         7.38657113141795   -1.86648804911464    2.82023425120105
H         8.37074184218814   -1.96332482672994    0.45056685171494
H         7.70621806231962    0.59119383007819   -0.53487498484183
H         6.23837259104863   -1.99200011597711   -0.94479844462127
H         6.26256196907712   -0.66291692300977   -2.03312270386606
H         8.20140986428312    1.74198986594437    2.32998676047240
H         8.30058167111693    0.46471149828812    3.54880603225161
