30
 energy: -45.970893216919 gnorm: 0.121587917371 xtb: 6.4.1 (79825abcba525fcdf90b791dcacef51065a7a4e7)
C         1.15527876889969    0.20758020884539   -0.17954147815460
C         2.61461256177124   -0.04591344225131   -0.02506958860341
C         3.23534245532243   -1.28179781817718   -0.09957137691297
N         2.68016658233591   -2.49920547702808    0.04999883507100
C         4.62173297211905   -1.06510592961572   -0.00435572447521
C         5.04196791850153    0.23446092222456   -0.09249688675098
S         3.72926939660146    1.28143700867646   -0.01256116353713
N         6.38807251317122    0.40496566928847    0.09664899860196
C         6.71973044373713    1.06108460161695    1.39617927937255
C         6.67250525961573   -0.08521759895307    2.42743423948636
C         7.63042494295254   -0.98926651574215    1.65580763957408
C         6.98227677704285   -0.99735279285870    0.26118835520739
C         5.79088494546526   -1.97344686806793    0.00383990680012
C         8.82095843576015   -0.08901772369498    1.41948899637061
O         9.97888903380558   -0.32877913048129    1.72825730933024
C         8.22274002302687    1.27387410579391    1.15826878696859
H         0.57861113477485   -0.71072918303295   -0.03391635589550
H         0.98855150395673    0.68909166880127   -1.14823815747655
H         0.88315187014732    0.95652375735706    0.57209798411389
H         1.66742153803547   -2.54461637134648    0.10293863913345
H         3.19937848450964   -3.35931031309308    0.19785577145784
H         5.96223046645313    1.83908530068174    1.51911958987478
H         5.68750307935744   -0.49898620132111    2.66633199162833
H         7.02190494365397    0.37358328705269    3.35920685662632
H         7.84377481223280   -1.97841918138883    2.05614356845309
H         7.72972381682214   -1.14093031018150   -0.52925485900681
H         5.87616055720732   -2.78772106376810    0.73098421614259
H         5.88432634185889   -2.37397187702819   -1.01144823520046
H         8.43699110367826    1.71124092143787    0.18147269258034
H         8.76051837617904    1.97727739226129    1.79943884369510
