30
 energy: -45.971150679353 gnorm: 0.119665184852 xtb: 6.4.1 (79825abcba525fcdf90b791dcacef51065a7a4e7)
C         1.03781523008878    0.04859538350723    0.09984780800252
C         2.51815037703008   -0.11351445671855    0.11004448680660
C         3.33734047938216   -0.94331405076557   -0.63736872953489
N         3.03168016780178   -2.03418201036220   -1.36486564330124
C         4.68345407065070   -0.60504832628613   -0.41009237100245
C         4.86175967487005    0.35259640607359    0.55134610933611
S         3.40879163997932    0.98543806321061    1.11181144207618
N         6.19145022398331    0.65781411574944    0.67628934112948
C         6.69651971237320    0.57482594431848    2.07888898742982
C         6.83790994977049   -0.95048703961123    2.26097371710793
C         7.69406737727933   -1.10370669705674    1.00644577049116
C         6.98888952604672   -0.36264000102693   -0.14188725045105
C         5.93389258282919   -1.22163864975710   -0.90837608229017
C         8.83447483029495   -0.23117569783155    1.47742866185382
O        10.04798619209248   -0.36824593530609    1.43022062334226
C         8.17984785136495    0.97433316448629    2.11129561025733
H         0.47420673258750    0.26505223848758    1.01228206675976
H         0.59178838468818   -0.80376558165163   -0.42223012111700
H         0.86822518530964    0.91724699359924   -0.54560936702633
H         2.15018184932112   -1.94873586833815   -1.86102787690302
H         3.80493688904157   -2.56108216649296   -1.75942015052187
H         6.11671956856105    1.21409702072814    2.74923957529690
H         5.81799037804459   -1.34759432009498    2.28496876028809
H         7.46844062068079   -1.37985941772426    3.04764330269821
H         7.95764332246521   -2.14003780964454    0.80456569765416
H         7.71460115741044    0.03711143335508   -0.86135474568946
H         5.94028022097064   -2.25786657758749   -0.55447763967288
H         6.06893124782869   -1.22147834138577   -1.99544835564869
H         8.44282280517605    1.84272057156210    1.50460676643147
H         8.56647975407721    1.04591417260196    3.13133125382505
