30
 energy: -45.974239006274 gnorm: 0.111320083956 xtb: 6.4.1 (79825abcba525fcdf90b791dcacef51065a7a4e7)
C         0.98528264512202   -0.23362499968911    0.18030416375425
C         2.45855413918757   -0.04857541235613    0.06627146745730
C         3.32352623264420   -0.64337520432779   -0.83722328212415
N         2.89274240138822   -1.23790597551749   -1.96577604342886
C         4.66383656410550   -0.51434556097431   -0.43099720902213
C         4.87386334195633    0.33341893273900    0.62276955514512
S         3.38948204949355    0.84116317960765    1.22653608482832
N         6.17520202453825    0.60567502608451    0.95328412337449
C         6.63499925539666    0.12761672466640    2.29093683034808
C         7.02530599759399   -1.34290256520712    2.03606546264243
C         7.95055163606038   -1.07516757494352    0.85176792475942
C         7.00845134356145   -0.23085554457166   -0.02270827311259
C         5.97978883678829   -0.93915626558099   -0.96002673814101
C         8.92498762581020   -0.14622565513964    1.53821224357330
O        10.12961788756538   -0.11505935209790    1.33444455629161
C         8.06845750376857    0.63762555599381    2.50542930275661
H         0.37955076528239    0.59608745297023   -0.19614040383102
H         0.70600630413935   -0.45055606745081    1.21614689261419
H         0.68487073889706   -1.02168903355972   -0.51872311096965
H         1.87861849287507   -1.27773479755288   -1.94378404019998
H         3.44945024969927   -1.87315023642699   -2.52948172260416
H         5.95971791898196    0.39710318388812    3.10676634305438
H         6.15935762859814   -1.96649263883583    1.79157675083462
H         7.54847252783741   -1.77691860750786    2.89554522389748
H         8.43838623792428   -1.87635258429676    0.30010679483721
H         7.55531026939027    0.53483785736381   -0.58728863655687
H         5.87908589626432   -2.01992147020142   -1.10445223201543
H         6.16305383137580   -0.56717989192720   -1.97393457852249
H         8.31271540608025    1.69997620822574    2.44999430504087
H         8.35909954896911    0.28632142570508    3.49900536572018
