30
 energy: -45.978244619561 gnorm: 0.106428023247 xtb: 6.4.1 (79825abcba525fcdf90b791dcacef51065a7a4e7)
C         1.11114181104069    0.24215792268874   -0.23599578548761
C         2.56169483392269   -0.02420381093812   -0.02930017591025
C         3.24043199295146   -1.18523111763887   -0.36035571679687
N         2.74601627137644   -2.35720225397366   -0.80161487875487
C         4.61036121041689   -1.01313057522855   -0.09244639371869
C         4.95307032890217    0.26992337318166    0.23855709115504
S         3.60897160292410    1.23152450285863    0.54588093196597
N         6.27362207075901    0.56565222835805    0.45194210945622
C         6.72486425969066    0.84215372923231    1.84807799372691
C         6.77442271674148   -0.58445056496773    2.43294541101740
C         7.72738019434623   -1.06855382421945    1.34306548440299
C         6.93483014049456   -0.75994537216527    0.06175770900668
C         5.84208142382499   -1.77133068166276   -0.40877641095642
C         8.84502412590220   -0.05777536235852    1.45648211848254
O        10.02998848583469   -0.14951000142926    1.17175260310109
C         8.20727904202403    1.24506701213346    1.88010738248698
H         1.04102893126375    0.94357359610688   -1.07274223002266
H         0.63769703716126    0.61039743242120    0.67957738824634
H         0.59754815914207   -0.70201485698016   -0.44739751924678
H         1.79951831847241   -2.64930961845438   -0.57950632275341
H         3.46255254943794   -3.07644994929376   -0.82355801329149
H         6.04841365406766    1.48895682606237    2.41222864936337
H         5.80273080536787   -1.08675588826663    2.47777932071727
H         7.25125213416873   -0.64557508685411    3.41766674360155
H         8.14199656535941   -2.07357875840220    1.39026893273144
H         7.60967427234855   -0.61220806771174   -0.79079794388414
H         5.94564373257470   -2.74274872000415    0.08587000941530
H         5.77424334391953   -1.80263125785718   -1.50165328051332
H         8.57628727318441    2.03256550271147    1.22055986851067
H         8.68934144019250    1.43694427116315    2.84233383557725
