30
 energy: -45.979808652132 gnorm: 0.108220335427 xtb: 6.4.1 (79825abcba525fcdf90b791dcacef51065a7a4e7)
C         1.04136638993692    0.04374842751479   -0.23542605209537
C         2.52614126282007   -0.02559200751424   -0.14371355277214
C         3.20824727290537   -1.23070460033866   -0.17019573656592
N         2.68549709383102   -2.46996157538404   -0.23058839397767
C         4.56550631238305   -1.07867077420762    0.16571147541422
C         4.96526073641217    0.22994946923021    0.13489382845791
S         3.64983991447685    1.27510871540265    0.07979146763304
N         6.31794178292599    0.44404066133842    0.09933307702323
C         6.93954658880994    1.19725453387752    1.22873306115863
C         6.78326790630801    0.16980361704090    2.36875382160106
C         7.59663024898118   -0.90761165473720    1.65605458373511
C         6.90247838594846   -0.95973918637254    0.28471936328707
C         5.72688324215411   -1.98746243873465    0.29749954526885
C         8.88772751119421   -0.15399260736576    1.43516868944972
O        10.04691756180507   -0.47646823779408    1.64944554008277
C         8.46703991807411    1.25106714435465    1.07129446473369
H         0.75130411996448   -0.16685205973597   -1.26913572461838
H         0.64523345928641    0.98163686491454    0.16640538602407
H         0.52908153195636   -0.75242059011698    0.31558255951327
H         1.67879877041642   -2.60004475232111   -0.21817291181368
H         3.29815279568458   -3.23779779021922    0.02690631120931
H         6.40056045165391    2.12682469949754    1.42772773334648
H         5.73730779383913   -0.11389414683243    2.52363735466475
H         7.18750619912276    0.40248929353208    3.36033204926135
H         7.54684417216000   -1.87490950359885    2.15210522167611
H         7.64909013652398   -1.19672710165664   -0.48372040597972
H         5.76998923799539   -2.60390726384451    1.20148565570295
H         5.90264710413722   -2.71731428612764   -0.50023784265635
H         8.73255790758012    1.47611964370795    0.03680162347415
H         8.97750846466168    1.93584090607994    1.75363422062215
