30
 energy: -45.978401619796 gnorm: 0.117470978638 xtb: 6.4.1 (79825abcba525fcdf90b791dcacef51065a7a4e7)
C         1.09224282748736    0.17280476973870   -0.38560213951772
C         2.55327038486679   -0.10673190113788   -0.31465552482107
C         3.15134603944410   -1.33549053094779   -0.08943558887908
N         2.54880237133579   -2.53330833549363   -0.21128186765880
C         4.50755975058667   -1.13547351455013    0.22485347208897
C         4.90594232025421    0.17307197737626    0.27218530961545
S         3.67290035803132    1.21181471564093   -0.20357419648879
N         6.24195702882099    0.42799818096335    0.43626748653722
C         6.87232530861733    1.10982973245099    1.60545933602914
C         6.98412427653358   -0.03751777870240    2.63055466423329
C         7.77268107116952   -0.91418068760836    1.66103803207614
C         6.87862056158631   -0.96507683645250    0.41076215537034
C         5.69290989208918   -1.97665650635826    0.50667430378000
C         8.93857709544245   -0.02641471483537    1.29195480596615
O        10.01064358954643   -0.38400577955265    0.82673578353470
C         8.37943675981874    1.36806704987089    1.45430659918753
H         0.47439136638456   -0.46872461078543    0.24980639038747
H         0.76226908913009    0.05140109475300   -1.42213626860672
H         0.82923593405530    1.21290775867430   -0.16436806466094
H         1.61517037194414   -2.39219075762749   -0.58402091923146
H         3.01718164680136   -3.25823100174845   -0.74638089457330
H         6.33922482002547    2.03745649660494    1.82798593631378
H         6.04808661725995   -0.50568652729768    2.95173594046385
H         7.53554899490213    0.30040909966612    3.51515333528234
H         8.07300507514772   -1.88593374355437    2.04796374815643
H         7.34617045372841   -1.12821876552264   -0.56845889490486
H         5.76270751991559   -2.42750971197772    1.50212039197633
H         5.92902178321397   -2.68044442109502   -0.29886609819993
H         8.68018245922147    2.00562622139748    0.62100341343837
H         8.74221325840226    1.87977119651675    2.34964612362778
