30
 energy: -45.980712037937 gnorm: 0.110354951999 xtb: 6.4.1 (79825abcba525fcdf90b791dcacef51065a7a4e7)
C         1.09227202927611    0.29010427029736   -0.30471504031611
C         2.54032864668143   -0.05315093538264   -0.24918490878300
C         3.20963129172566   -1.24714124943519   -0.03779101378942
N         2.59859560327191   -2.42641179502517    0.18272937024412
C         4.61155299824593   -1.15904183908100    0.03259408988146
C         5.00528160003387    0.15139105054530    0.00123028417887
S         3.70633256558705    1.21625122500606   -0.06607694409662
N         6.34957036646063    0.37444905105718    0.14257542483364
C         6.75379048888262    1.04088003038345    1.41605248892252
C         6.77076701193805   -0.11729843980072    2.43490487019570
C         7.74228057449471   -0.94836877639670    1.60075520401528
C         6.96224009421101   -1.02308012357259    0.27747162075249
C         5.79038371224187   -2.04717078740435    0.14943532768211
C         8.89934824841778    0.00182008353939    1.39581639327602
O        10.08728260187302   -0.27264812783173    1.31152020585400
C         8.25478611225417    1.36860750161698    1.39313046127655
H         0.68529993238233    0.36313275656536    0.70824346075073
H         0.48112197807662   -0.36806818962471   -0.93027811001562
H         1.10732021364357    1.32277865038521   -0.66980206898351
H         1.64615294611351   -2.52295552896125   -0.15498290253785
H         3.16181385132637   -3.27137990971901    0.17664030790120
H         6.03327962853723    1.80245080486052    1.72440242313071
H         5.86293788131867   -0.72495587889216    2.50635130321289
H         7.14840315678048    0.17377027881086    3.42153983099560
H         7.99573943437406   -1.95910918559062    1.91439902839521
H         7.66263165112750   -1.00023288522819   -0.56693451723815
H         5.60575533952137   -2.71125482766922    1.00029253233072
H         5.92956814199384   -2.71673479050581   -0.70629437848934
H         8.50659316062604    2.06122556829883    0.58802345431414
H         8.49144059626396    1.83040731270839    2.35532398259539
