30
 energy: -45.977221381284 gnorm: 0.122903205219 xtb: 6.4.1 (79825abcba525fcdf90b791dcacef51065a7a4e7)
C         1.09861358468859    0.11309193939082    0.05496735048561
C         2.56982570669431   -0.10450891521303    0.13217140197454
C         3.29851524019622   -1.20069560624573   -0.29870280958434
N         2.89567132139682   -2.33324875393280   -0.90509626048551
C         4.67730252325052   -0.92657762268939   -0.25505658038767
C         5.01053731904929    0.35701390334081    0.08345137432181
S         3.62260624020948    1.24004705340575    0.42932105915101
N         6.34932003499937    0.52273206864544    0.32229013089413
C         6.72549739801415    0.98120900937879    1.69253006819682
C         6.65910668399362   -0.34964742072663    2.46979397677620
C         7.61903804902213   -1.03318520705433    1.49941773789909
C         7.00029763094583   -0.84664020211671    0.10389430997831
C         5.87045871832064   -1.78693064667446   -0.42309740995725
C         8.81737866871635   -0.11252109270210    1.49475549913023
O         9.96241284218131   -0.44025774626091    1.22068962543700
C         8.23509873866047    1.25006144531714    1.79122526225725
H         0.64844720891683   -0.19790671681282    1.00242417939541
H         0.53356332896587   -0.49646177191930   -0.65720328318953
H         0.85592182279721    1.16227410436090   -0.14565384375952
H         1.88072037005351   -2.31892310007209   -0.89143532379014
H         3.27338873818066   -3.22038764962729   -0.58644736769548
H         6.02655920777433    1.76483977556780    1.99520787913571
H         5.63218860860511   -0.72816406720138    2.44390377391564
H         6.92153690124713   -0.34161010657141    3.53367573100076
H         7.93118343242397   -2.06458545401990    1.65103834577547
H         7.73763279300954   -0.76222562993832   -0.70437736237396
H         5.80779110389960   -2.62262749331206    0.28169814940652
H         6.13410956554863   -2.11826789757324   -1.43337729759065
H         8.59882898066597    1.93194605648571    1.02047396799378
H         8.62054124707450    1.67579031362989    2.72142405228400
