30
 energy: -45.978087946728 gnorm: 0.118619445198 xtb: 6.4.1 (79825abcba525fcdf90b791dcacef51065a7a4e7)
C         1.19051078977942    0.18922554526262   -0.21846209411842
C         2.66088202773219   -0.01867927170871   -0.10639195770985
C         3.25100093409372   -1.26976275776408   -0.03699401530485
N         2.60727791939420   -2.45152418117457    0.00464132883270
C         4.64974484247340   -1.13174079222129    0.01365641195517
C         5.05174645117885    0.17588097391384   -0.02829940342043
S         3.79453243773020    1.29146311713056   -0.05310783501509
N         6.40187053317879    0.37882967651005    0.08493660935521
C         6.73897142495158    1.02074890398116    1.39014566466697
C         6.65758787980340   -0.12136548479579    2.42391410404012
C         7.62355315745652   -0.97219787764607    1.60335484796493
C         6.97473394329462   -1.03634176959071    0.21050038261871
C         5.79926909548134   -2.05959780916516    0.11235853364880
C         8.78297499640917   -0.00550290114291    1.53331053254023
O         9.93850930188086   -0.32473788339608    1.29570546714879
C         8.22725650601144    1.39748105337311    1.45338314069698
H         0.66861801427179   -0.57231598316083    0.36867230762417
H         0.90084816067083    0.16061330062656   -1.27359309220413
H         0.84318330734275    1.17795139946312    0.10046764413514
H         1.61182258701799   -2.39398910846371    0.19510309842011
H         3.15448053525953   -3.26096281694817    0.28141087222371
H         6.05817292551849    1.84000394145292    1.63415429211232
H         5.63832410236857   -0.50797188896643    2.52462520898659
H         7.04526638133589    0.17383651812073    3.40541283507354
H         7.80223484541369   -2.00614441399363    1.89186382466201
H         7.64195847666908   -1.14905509309519   -0.65332783100614
H         5.83239949908669   -2.66314106155210    1.02542542838478
H         5.92559739355484   -2.47778324555898   -0.89219295041303
H         8.46072111107792    1.88506989177185    0.50518734348344
H         8.48229106821901    2.01944545424555    2.31547271769718
