30
 energy: -45.978521926746 gnorm: 0.117231848091 xtb: 6.4.1 (79825abcba525fcdf90b791dcacef51065a7a4e7)
C         1.05043060721768    0.15713808645513   -0.34920028112045
C         2.52299679551174   -0.05351697369146   -0.27885140960606
C         3.17777283506697   -1.26950086147007   -0.17436312122437
N         2.62162201486975   -2.48654790156159   -0.32324444258146
C         4.56151793888269   -1.07874126696054   -0.01016713749913
C         4.91694862861158    0.23295481347211    0.15219882709675
S         3.60003906420153    1.27000422186996    0.02569269766119
N         6.25336696375260    0.46823928003313    0.34054132566485
C         6.88839596679278    1.10709259832225    1.53128589059702
C         6.86829229234766   -0.03823154821944    2.56451103423233
C         7.70507614120216   -0.97064447467294    1.69231776422083
C         6.92352702624805   -0.90897172331545    0.36925244529084
C         5.75885555087406   -1.93031136658952    0.17225484230113
C         8.92313316126859   -0.12527637836131    1.40016323914437
O        10.09981365488597   -0.44957153888244    1.46247166650294
C         8.35996116366963    1.24708028374494    1.11197943825601
H         0.46352436418889    0.06821041123926    0.56986299557163
H         0.72878262213886   -0.69723570145100   -0.95303181234541
H         0.81936687457615    1.10361458454870   -0.84992291844069
H         1.67533749335480   -2.47190503893976    0.04397275920110
H         3.11064192500115   -3.27369147953156    0.09207170034952
H         6.52930318013923    2.08171701478977    1.87094050002122
H         5.87607444743635   -0.45694959881193    2.76119563405792
H         7.34290782395239    0.17198533825314    3.52956417436079
H         7.98456843320571   -1.96794377415641    2.02621623135692
H         7.55905432142982   -0.87374153717374   -0.52459091237670
H         5.74842395856063   -2.65102170994104    0.99658549399733
H         5.94289822309432   -2.52672676065432   -0.72795544868236
H         8.61076026696945    1.77893157055061    0.19243722063378
H         8.91180238889797    1.81789722136206    1.86345802687819
