30
 energy: -45.976467511785 gnorm: 0.117839817358 xtb: 6.4.1 (79825abcba525fcdf90b791dcacef51065a7a4e7)
C         1.14253039147308    0.18556772674930   -0.46417588565237
C         2.59683097319026   -0.05960755486978   -0.25759757571535
C         3.19284116019278   -1.29950076356303   -0.09727610666780
N         2.53835246483172   -2.44788037241749   -0.35328726619890
C         4.54127253683319   -1.14029796847466    0.26944908040076
C         4.93165116047864    0.17144843709231    0.25655788740316
S         3.67706367450616    1.26610637919318    0.02534304960716
N         6.28995288484107    0.32743736691021    0.34333062487977
C         6.80654828909111    1.11607139252347    1.50111020785953
C         6.94206664661898   -0.00790783207166    2.54898005945570
C         7.79848566864133   -0.94481144012967    1.70099405572201
C         6.89433560634896   -1.07501090282994    0.46378544344968
C         5.68104887385477   -2.05747568759421    0.49696109373107
C         8.89811131432304   -0.00048387561510    1.27352092272570
O        10.00901867996803   -0.39097371139284    0.94636776534546
C         8.29607218721554    1.38507518071198    1.23677311602168
H         0.59179047934687   -0.23921681706245    0.38038791366715
H         0.85477675464830   -0.17200782799296   -1.45783683814830
H         1.03422611864185    1.27561421902825   -0.46461514677982
H         1.59498395968017   -2.28167327448507   -0.68936516450233
H         3.00891885378417   -3.32774708040318   -0.54203271221097
H         6.14393090511349    1.92100884194242    1.82855414988223
H         5.96398729097857   -0.37596319156611    2.87517312226686
H         7.50185594346487    0.26903412700152    3.44937869213380
H         8.10454567112608   -1.87995064103998    2.16580796514724
H         7.61886969754656   -1.24842852560845   -0.34186258167752
H         5.75675438797942   -2.71174645190331    1.37174774884898
H         5.79854126267584   -2.71656146247088   -0.37008162300031
H         8.45792080128805    2.12547465356143    0.45131941454242
H         8.58670282796540    1.90807985787140    2.15169427153010
