30
 energy: -45.975688795185 gnorm: 0.116918238197 xtb: 6.4.1 (79825abcba525fcdf90b791dcacef51065a7a4e7)
C         1.20505769153872    0.24826743705907   -0.47761845473346
C         2.64231256012807   -0.05926640030369   -0.23783292488577
C         3.21447146355959   -1.30532320113750   -0.04227489342787
N         2.60911233398735   -2.50664537490255   -0.09739521976649
C         4.58605609253984   -1.17078244091575    0.23835734906752
C         4.97577066456118    0.14121940236845    0.24209910679125
S         3.72623579779391    1.25450372638680    0.08402729454215
N         6.32725451616811    0.35313562229538    0.31577772827419
C         6.76690764195082    1.12938335609236    1.51302982393396
C         6.80617588895680    0.02342622130200    2.58775889125143
C         7.67491226051389   -0.91970866957888    1.75943777788359
C         6.91360277011749   -1.05744066651078    0.43031696624127
C         5.73412867670393   -2.08052270484637    0.45369143476799
C         8.82917028879682   -0.05844407670841    1.30164296728577
O         9.90244073872919   -0.39392431417070    0.82292569828776
C         8.26039835976771    1.33914600865732    1.21908479773619
H         0.67941892096594   -0.32529845354343   -1.24688462013488
H         1.15088698511011    1.26833941227747   -0.87073831322406
H         0.60402955587709    0.23423835502888    0.43807786084475
H         1.70541191095311   -2.45414286751903   -0.55683653085052
H         3.27566691483480   -3.04931514405676   -0.63817011385739
H         6.12920390711773    2.01674936806389    1.50202379625470
H         5.85775542014093   -0.40789510093250    2.92386366470742
H         7.42942480602156    0.20778528466869    3.47000099283087
H         7.96468030545184   -1.89055189230317    2.15656235963527
H         7.60849834118221   -1.23073585645037   -0.40105598255631
H         5.62677999920774   -2.51661630466122    1.45236649090876
H         5.88993212460055   -2.72327235081458   -0.41955524823160
H         8.26262783113827    1.73261706696632    0.20099864106791
H         8.82600826112363    2.03406811147552    1.84538304403985
