30
 energy: -45.972181614714 gnorm: 0.137391118652 xtb: 6.4.1 (79825abcba525fcdf90b791dcacef51065a7a4e7)
C         1.05737363312229    0.27116330042143   -0.49691924854729
C         2.45695146124706   -0.07454016800867   -0.12349360565395
C         3.14682613032002   -1.27524729234413   -0.09816346589390
N         2.61966987913168   -2.49612681061278   -0.30847837231465
C         4.52980316745344   -1.11154846751751    0.09850185915971
C         4.95842585318574    0.17893843853074    0.25395731600746
S         3.61853174078040    1.18656681643897    0.13109613200128
N         6.30152134257525    0.42080716403551    0.37412238144356
C         6.88183524637547    1.12468580520746    1.55609472861854
C         6.90810193142566   -0.01340863550805    2.59714076662467
C         7.74586085118495   -0.93197969414759    1.71130253343887
C         6.93611035554406   -0.97311644938269    0.40449869207450
C         5.71459365298495   -1.94589280458357    0.40215921121348
C         8.89885748413841   -0.04647887579887    1.29880835277295
O        10.02572348485647   -0.47869009772658    1.10647232252106
C         8.36120167895341    1.36338078428219    1.21636212595599
H         0.41666063005580    0.33825927093703    0.38740498539212
H         0.65617653505507   -0.48907566676566   -1.17448999846883
H         0.96654705426696    1.25588537804689   -0.96809260541431
H         1.77309372562591   -2.66263608923080   -0.84336225603585
H         3.30536341172041   -3.23490203663894   -0.43200378300722
H         6.29574446983364    2.02981350633462    1.73342795460751
H         5.98981013246064   -0.53404587808148    2.88728369921170
H         7.37535027813482    0.34587514194729    3.52092253337863
H         8.04558089588546   -1.92916571339460    2.02752706531807
H         7.60377675627318   -1.04541704396245   -0.46330673503615
H         5.70915825048441   -2.71500655966309    1.18157420233764
H         5.89670910437766   -2.65812939292193   -0.40994582549094
H         8.58119930018400    1.62150582405038    0.17891507756115
H         8.85766284216563    2.17395180545596    1.75634519686932
