30
 energy: -45.982343051562 gnorm: 0.121584427919 xtb: 6.4.1 (79825abcba525fcdf90b791dcacef51065a7a4e7)
C         1.11088878371474    0.13911620670967   -0.06742307943980
C         2.56598850771225   -0.12932392934218   -0.23594724707590
C         3.26583299829026   -1.32447924740699   -0.22657975564788
N         2.73489237903993   -2.56124086410679   -0.26115808891557
C         4.64065816841910   -1.04077456406661   -0.14016521497936
C         4.99548988844384    0.26683571910888    0.05345836886111
S         3.62177003038894    1.23122083817688   -0.03917622796599
N         6.33539505661636    0.53293847252601    0.15684650975879
C         6.86836589987848    1.12791162085863    1.41828102637635
C         6.69659329918533    0.03600069319046    2.49436208871012
C         7.55890646644891   -0.92300824145247    1.67763689763668
C         6.96571442890088   -0.85942288415610    0.26017279363159
C         5.81805816839822   -1.90599211545098    0.09898869807557
C         8.83114732146309   -0.11728257762154    1.55164583194213
O         9.94027117294404   -0.62340409223498    1.46613578001876
C         8.39106643091656    1.31016608174661    1.32296582841510
H         0.86954816681283    0.11927546918544    0.99953775607927
H         0.43139922080215   -0.56069988370416   -0.56398717598379
H         0.93420057365398    1.16538584669895   -0.40725137507337
H         1.75315040040721   -2.68788115649522   -0.03607539273742
H         3.37638618744876   -3.28288859362155    0.05337845113401
H         6.34206484497914    2.06803591694386    1.60098061074820
H         5.63788145522292   -0.23849124635930    2.54220866481524
H         7.13670502289288    0.25922622273765    3.47275395175189
H         7.54438185024026   -1.95784962450236    2.01394384766847
H         7.72345610147562   -0.87869926279386   -0.53326783758160
H         5.73093813448693   -2.50339601402494    1.01253777638806
H         6.02957744411857   -2.63964560706254   -0.68648806588285
H         8.66261510832861    1.54752161521900    0.29279713552157
H         8.75567062250517    2.10184922307854    1.98280093855874
