30
 energy: -45.978674411071 gnorm: 0.109414301712 xtb: 6.4.1 (79825abcba525fcdf90b791dcacef51065a7a4e7)
C         1.12774266266894    0.19722559519504   -0.06186966661178
C         2.59692289776457   -0.03267565386171   -0.14206044137446
C         3.21706069533141   -1.26746803393341   -0.04728077751425
N         2.57743077798535   -2.45094598442050   -0.10137700415278
C         4.60295149005185   -1.11702295649731    0.13919455296300
C         5.00441662187699    0.18983559769417    0.07448950723976
S         3.74831855865768    1.25837979648354   -0.25132794083762
N         6.35190932381532    0.42060773548670    0.16310810149325
C         6.76164702507010    1.05699951830998    1.45011567888773
C         6.68741026501323   -0.09142802252175    2.47740766942152
C         7.65020154932963   -0.96678596413168    1.67921997857614
C         6.97573583985541   -0.97206218573286    0.29712282274338
C         5.79755535014509   -1.99055053624169    0.18321681413004
C         8.84006324798097   -0.04743223595313    1.52861370803784
O        10.02933788481437   -0.25529916250869    1.33876152037496
C         8.26512807353688    1.32913938034038    1.28762504222184
H         0.84473099038901   -0.35436725081854    0.83962581000170
H         0.65638846116946   -0.18946754520969   -0.97089010347738
H         0.91148272735612    1.26313446434341    0.06851933927589
H         1.58454329090566   -2.37160060503435   -0.29732607813892
H         3.11474458507875   -3.30254476688190   -0.23289270144321
H         6.17143668092929    1.95728516464770    1.63811336476132
H         5.67270244507946   -0.49477131844757    2.39874311394573
H         7.03247594025616    0.01348382552725    3.51215487873485
H         7.85077377158793   -1.94922856026649    2.10205250759154
H         7.73103530409813   -1.19950170413737   -0.46569173073304
H         5.74290638501737   -2.69394487097307    1.02065525236631
H         5.97141829196931   -2.57107473217139   -0.72932081900443
H         8.61902296130519    1.76701801424592    0.35256109849608
H         8.69328573203492    1.83107561547514    2.15930263047054
