30
 energy: -45.981688318307 gnorm: 0.104318166532 xtb: 6.4.1 (79825abcba525fcdf90b791dcacef51065a7a4e7)
C         1.03905141266886   -0.07783162133416    0.14585682100631
C         2.52477792793116    0.00194967821292    0.08239527477941
C         3.32555553528263   -0.65268164270317   -0.83873410862356
N         2.85812685872958   -1.32713767308208   -1.90611050988817
C         4.68020700217454   -0.58960547462879   -0.46585227687925
C         4.87176722513773    0.16049177612756    0.66281909708293
S         3.46047399591816    0.83034475844298    1.28352390432570
N         6.15272855445840    0.48571889381818    1.02366672131857
C         6.65420282553157   -0.00229140087132    2.34261990492001
C         6.98105994643809   -1.46140206740973    1.96329651982923
C         7.94074149956649   -1.04259697656707    0.85246989731291
C         6.96720603125034   -0.25576780517814   -0.04098011695452
C         5.99460944202588   -1.02752149536829   -0.98800412852014
C         8.87418860003236   -0.07331998451645    1.54010571167372
O        10.01975976261449    0.21229887648777    1.22432849095467
C         8.04100758742004    0.60636599066499    2.60190220090519
H         0.65292576305717   -0.28607771579898   -0.85643301730645
H         0.53177415515773    0.75913482764767    0.63593994925370
H         0.75048761034390   -0.91143485216804    0.79529346426700
H         2.00677797820944   -0.90575905688022   -2.26410832154395
H         3.44764525396753   -1.65626262974707   -2.66464054560633
H         5.89173345147757    0.17053299920026    3.10614973831495
H         6.13605784677962   -2.00337124174429    1.52655088176814
H         7.41595001161662   -1.91695301785003    2.86002533329598
H         8.52045909946081   -1.82458695054425    0.36602441852773
H         7.44083742128550    0.41493868298182   -0.76893490094586
H         6.16345154923257   -2.10839553178219   -0.94049730408547
H         6.17236589244662   -0.60899905057609   -1.98459993409863
H         8.01165768728348    1.68844685423493    2.46203277467430
H         8.41150897829787    0.39980309885329    3.60944439609192
