30
 energy: -45.976072597853 gnorm: 0.131634484232 xtb: 6.4.1 (79825abcba525fcdf90b791dcacef51065a7a4e7)
C         1.08221207809551   -0.21056225068749    0.35565462751604
C         2.53912707418049   -0.05605672990391    0.08862942816363
C         3.35250029576916   -0.73536181334042   -0.80313001819989
N         3.00703956398089   -1.57170514031802   -1.80005510099087
C         4.68661331942772   -0.44935551026307   -0.46189273109911
C         4.90927925218188    0.44850659492251    0.54682120099043
S         3.43285511374889    1.03291485124465    1.09851388671934
N         6.24947498055022    0.61735380280772    0.77531989577436
C         6.62884224555908    0.26612037886660    2.17602812819776
C         6.84421385132733   -1.26011584751612    2.11322845558096
C         7.82924664453175   -1.17684760560909    0.95000063187720
C         7.04667014224148   -0.36118259169583   -0.09277882016602
C         5.94456501424505   -1.05562032185038   -0.95389605318768
C         8.81448363400646   -0.19340153060699    1.53805358841412
O        10.00169229508101   -0.09053682386208    1.26679518559597
C         8.06522461764147    0.71719287112500    2.48304256704269
H         0.58129926334342    0.65958729531597   -0.07905273493624
H         0.80216476160808   -0.21131341775767    1.41376495589544
H         0.52755690838916   -1.01366483697982   -0.14165338524597
H         2.10468628271241   -2.03418072293930   -1.75114512014638
H         3.68493032443149   -2.02130406273700   -2.40795963542769
H         5.79967816693517    0.56796679860197    2.82068407962085
H         5.96351045458594   -1.81162722159479    1.76869599267656
H         7.25389851983713   -1.59264814860997    3.07362386563108
H         8.22289270859627   -2.08469892526880    0.49716647183808
H         7.63719519465352    0.30900143121328   -0.73013711468802
H         5.97241207779254   -2.12541486334487   -0.72191025000492
H         6.15450915553444   -0.84943106082976   -2.00906003892400
H         8.31220366499607    1.74323254017407    2.20453257354115
H         8.42473910202670    0.61490807139082    3.51035359072476
