30
 energy: -45.971685928603 gnorm: 0.124782221745 xtb: 6.4.1 (79825abcba525fcdf90b791dcacef51065a7a4e7)
C         1.20961183157016    0.19046930691695   -0.61904979207246
C         2.61193814825308   -0.07560600348145   -0.19424332737941
C         3.14549059059179   -1.32754561210257    0.06311885917286
N         2.49815460271112   -2.50710281248164    0.01543420413347
C         4.50797560284025   -1.12176608188733    0.34488016899921
C         4.99108041300253    0.14532900488168    0.15962341150693
S         3.73909375547322    1.23753616244020   -0.09599152902580
N         6.35391061611086    0.28272014590685    0.18537481251062
C         6.88002275887695    1.16795232313894    1.26650292644486
C         6.93834946442253    0.27129601534353    2.52042924377217
C         7.69760323028913   -0.82776689400644    1.78156754265150
C         6.86554392314140   -1.12140990830334    0.52197416894595
C         5.61180393841548   -2.02697136335333    0.73760547918672
C         8.85989674306742   -0.02880755591813    1.23897916146953
O         9.98149851888238   -0.47697975021978    1.05249105591796
C         8.36748984640312    1.36761259653252    0.93711559588798
H         1.02792018058415    0.21870208866288   -1.69758371777652
H         0.77579767453734    1.14419118684838   -0.30243586238159
H         0.65952327445594   -0.72673553108758   -0.38226037053543
H         1.62645556807671   -2.50252978315515    0.53566220266072
H         2.93937808708927   -3.42156114811592   -0.00219491146729
H         6.22478705248745    2.04226500060912    1.24531009843138
H         5.96474906906956   -0.13454287328724    2.81352130024035
H         7.41002878546335    0.62241549958569    3.44509801142626
H         7.90691120582579   -1.76943944698519    2.28520728599167
H         7.39094267570887   -1.55266602374158   -0.33945857314624
H         5.41224429700597   -2.37530105764910    1.75637709628328
H         5.86017628818602   -2.92393066360814    0.15990591498085
H         8.65527260077669    1.76690045582011   -0.03708877709731
H         8.79830890639326    2.07507841574711    1.65053541245020
