30
 energy: -45.975404197335 gnorm: 0.110435225756 xtb: 6.4.1 (79825abcba525fcdf90b791dcacef51065a7a4e7)
C         1.16655448028213    0.20040360883614   -0.06413815712288
C         2.63081982748313   -0.03082657522707    0.07811265377756
C         3.26132696942485   -1.26396739559361    0.06858689696766
N         2.57236913980394   -2.41879836322495    0.00243987511324
C         4.66145505865539   -1.14280521117852    0.01325956912839
C         5.08766490860370    0.15751834440900   -0.01401825974341
S         3.80054350912904    1.23456043777246   -0.10901761049132
N         6.42296622611681    0.44681491011643    0.08659730938973
C         6.70344932076226    1.08982769426424    1.40460025840316
C         6.56171725100421   -0.12608361419913    2.34332143807825
C         7.60658875242840   -0.96881990238244    1.61643680842247
C         6.97872433122185   -0.97512579444264    0.21255972008401
C         5.85165575886480   -2.02007265611294   -0.06349253636663
C         8.78017185842763   -0.02204331282191    1.51653101329910
O         9.96929689780597   -0.30166672763120    1.47886061049295
C         8.21246410250053    1.36287592224703    1.30848769727389
H         0.63552575067598    0.00286975472234    0.87182831620703
H         0.74986724104747   -0.43925631493348   -0.84850506664888
H         0.92392414243245    1.21456654686849   -0.39960115640533
H         1.56160453815369   -2.35458107851428   -0.06646841290319
H         3.01703324474120   -3.31437881894634    0.17973193451199
H         6.03671586691266    1.91992498420910    1.65079248759008
H         5.60648510800507   -0.65768210627478    2.40197706335103
H         6.87602922109021    0.24276870099586    3.32614113469173
H         7.84705938996404   -1.97082178886155    1.96625977554948
H         7.84170937584765   -1.02382234968176   -0.46344139806704
H         5.90540654093637   -2.74428693257701    0.75606696049435
H         5.91683635086519   -2.61696150896190   -0.97970036309635
H         8.70690316854414    1.74800924661940    0.41488476557736
H         8.63505750543117    1.95196421565331    2.12669951586368
