30
 energy: -45.983130800090 gnorm: 0.112481493075 xtb: 6.4.1 (79825abcba525fcdf90b791dcacef51065a7a4e7)
C         1.07227302894087    0.13833969525017   -0.06523340439076
C         2.55348707997874   -0.01575998846604   -0.05940893106716
C         3.27547823941817   -1.18634229090831   -0.22290852952717
N         2.64425672878344   -2.35093149115341   -0.46366623607194
C         4.67505503399524   -1.06722596110423   -0.15152123688909
C         4.95393322726692    0.23951768829401    0.14493828656399
S         3.64508516751272    1.28406186106672    0.29180652101150
N         6.29105827886738    0.50813635865410    0.27449989920792
C         6.73340389994778    1.00605146902609    1.61079286113398
C         6.73714968036673   -0.29119927720764    2.44556960689754
C         7.68411150728149   -1.06020222219401    1.52784419017224
C         7.00618561624092   -0.84212299524593    0.16476594083630
C         5.90322266897170   -1.89371119496221   -0.17587661939143
C         8.86071895147061   -0.11548555329824    1.44556586510347
O        10.05608037386922   -0.36931057739335    1.46318970463885
C         8.24014856832498    1.26234428897504    1.45282746431120
H         0.80399682792025    1.14622381591387    0.26528414768755
H         0.58153034240009   -0.58976152611732    0.58826850763286
H         0.64054371557491   -0.10532275642783   -1.04204954934613
H         1.65035053016782   -2.40718815808874   -0.66241972312897
H         3.20611028735132   -3.08708179860980   -0.88035111544368
H         6.14139709237028    1.91877542405218    1.71408150574135
H         5.76860867819714   -0.79518175663694    2.52579350517882
H         7.15979466085725   -0.23297245469444    3.45490575496603
H         7.85364772509679   -2.08297763026681    1.85859780388537
H         7.72760619748386   -0.66978429813556   -0.64390195976884
H         5.93793013610383   -2.66007237708826    0.60549343713382
H         6.10290779707865   -2.33918343807480   -1.15651004962865
H         8.58598895195570    1.90487923875775    0.64112115349473
H         8.63073849977147    1.63960182058468    2.40161460679902
