30
 energy: -45.976626447029 gnorm: 0.122923126960 xtb: 6.4.1 (79825abcba525fcdf90b791dcacef51065a7a4e7)
C         1.20141489380056    0.31764872070430   -0.40519348901442
C         2.60951865441115   -0.12762746987458   -0.21349424475125
C         3.12990587366156   -1.37103777326484    0.10493036413903
N         2.36195574560623   -2.45706675661789    0.31341665854965
C         4.51872636616686   -1.25260572027824    0.29268430514529
C         5.02273479810701   -0.00034947790157    0.06669741457269
S         3.82413805658912    1.10111363465747   -0.35267224767066
N         6.38418153279088    0.15096882157694    0.08697481411398
C         6.86383500338296    1.17258306203664    1.06447411385440
C         6.83856267106286    0.39235695709177    2.39501320753845
C         7.67351925900712   -0.78259159016226    1.89235469462133
C         6.92819299135984   -1.18288189331824    0.60807247975642
C         5.66402913834886   -2.09413425554010    0.70762772992314
C         8.84973618738890    0.00989718917199    1.37068462797584
O         9.99467735311724   -0.38234144646603    1.20072800732806
C         8.37758862921916    1.35782422517433    0.87697945764594
H         0.66732745517452   -0.54569898332252    0.00275958784418
H         0.99868301539306    0.49472984860717   -1.46612071413756
H         1.03109524801879    1.29692742094476    0.05517137978903
H         1.36809548590882   -2.28812855813320    0.43265994731699
H         2.70982812851567   -3.40681157134563    0.22290375412465
H         6.34767972840708    2.13580127342631    1.06428546556483
H         5.78742877505160    0.21003681819232    2.64074229876506
H         7.21458005030548    0.89053319403040    3.29568516244476
H         7.86759329381517   -1.61232288969944    2.56917908660878
H         7.52272141482602   -1.51364882018132   -0.25286959058394
H         5.57994106878485   -2.30185047825078    1.77946558940607
H         5.79455960710926   -3.03675209335552    0.16504593430456
H         8.70325321857307    1.50343437485042   -0.15455538297285
H         8.72333958975806    2.15936544287736    1.53505903653649
