30
 energy: -45.975737161202 gnorm: 0.111321308148 xtb: 6.4.1 (79825abcba525fcdf90b791dcacef51065a7a4e7)
C         1.17334073439965    0.30744753830093   -0.25710589470014
C         2.59290049695134   -0.13235373139535   -0.16118601225839
C         3.24382172124655   -1.35451790200788   -0.19089423472723
N         2.56924670682394   -2.51292879956282   -0.31621627105592
C         4.62215238128365   -1.24915091131630    0.06834007637061
C         4.96967413837048    0.06901332952863    0.19045442185071
S         3.70916764621609    1.17413775262107    0.06575707031269
N         6.30782470570500    0.36005635538675    0.22908875744228
C         6.81641054287258    1.16132394643693    1.38172863264285
C         6.80182983913350    0.14928379071517    2.54589695033098
C         7.65771244991790   -0.86459334708704    1.79101929282122
C         6.92566680767363   -1.02449843120862    0.44801373910726
C         5.80080286160504   -2.10238015369134    0.34192673700441
C         8.83227269907712    0.01912845592821    1.44015125531038
O         9.91309026542807   -0.43128811390396    1.09002988524817
C         8.31863430478529    1.41717987836853    1.18480203311836
H         0.44102121977483   -0.48024990074618   -0.45781775051486
H         1.06837207569942    0.93880673391383   -1.14502011688368
H         0.79777835861871    0.84661666510720    0.61935341820492
H         1.55420075779781   -2.52470988747204   -0.30845629837806
H         3.07935996032169   -3.24507978982615   -0.80094545144831
H         6.31303734042538    2.08048707426162    1.69150305065894
H         5.79046807877764   -0.19145089002381    2.78993209883669
H         7.20113227506786    0.53679408780056    3.48991598442777
H         7.97619922629880   -1.77182122034988    2.30064050138531
H         7.58024805752964   -1.19889325180603   -0.41523702701531
H         5.82797641473547   -2.68521984893850    1.26854031555819
H         5.92780564750317   -2.85473408541484   -0.44407290830782
H         8.57075946458152    1.60339957972885    0.13929785151820
H         8.74466854793665    2.13524188230785    1.89046665954484
