30
 energy: -45.974978483302 gnorm: 0.113772787914 xtb: 6.4.1 (79825abcba525fcdf90b791dcacef51065a7a4e7)
C         1.10137433444927   -0.12217012976163    0.31744461647511
C         2.57750011431383   -0.05110589224680    0.13365596480327
C         3.35709726195953   -0.68417197326412   -0.82013747493591
N         2.95078211925460   -1.28070172839032   -1.95668186468795
C         4.71804676475578   -0.50581844735112   -0.51336961058599
C         4.91485651181073    0.29258334742115    0.58073310887379
S         3.49828513011073    0.80988788220158    1.32332827573462
N         6.18918643221077    0.64178613257187    0.94265336286245
C         6.57777153214425    0.05107633265140    2.25769386950081
C         6.80895436905951   -1.43309494561225    1.90624564377387
C         7.84857505875901   -1.08676337712220    0.84343548327252
C         7.01076390822099   -0.17002333876107   -0.06363924023457
C         6.04165816160158   -0.92373167847385   -1.02860563998894
C         8.81129693298589   -0.15038013838704    1.53626836967385
O         9.89671832824341    0.25762693026045    1.15024078073204
C         7.99881508230727    0.49994602342564    2.63195287310926
H         0.54055834058002   -0.15491926392476   -0.62141495487466
H         0.83580689492931    0.80613820678811    0.83294639826508
H         0.71147511727314   -0.98571908424126    0.86716561788964
H         2.14580780656559   -1.89389016035386   -2.03751256082089
H         3.67179664051792   -1.34201335089346   -2.66914374769716
H         5.70467422721411    0.18473447467332    2.90115499465628
H         5.91701535385186   -1.90828283285752    1.48535711851573
H         7.20158248756025   -1.98874192430089    2.76524401236444
H         8.29967862099251   -1.99645087707044    0.45204789273531
H         7.78151349445275    0.44516861370788   -0.54486267387290
H         6.22883394402495   -2.00259396275612   -1.03724479964606
H         6.19849147566802   -0.73093307626017   -2.09546720734082
H         8.11174358185201    1.58503475595407    2.66591555681498
H         8.32492595770221    0.07504444579109    3.58494349652236
