30
 energy: -45.976811247614 gnorm: 0.112562315003 xtb: 6.4.1 (79825abcba525fcdf90b791dcacef51065a7a4e7)
C         0.99305762793660    0.11446952255968    0.02323103731127
C         2.47491065356095   -0.02413965254700   -0.02848749282014
C         3.35049085584200   -0.73255916388022   -0.83456899188607
N         2.96101524051591   -1.55856650298659   -1.82385837990045
C         4.68481271695011   -0.65410718164372   -0.39692701430637
C         4.85393248677162    0.18462249752898    0.67132918166569
S         3.41013020258994    0.95673188689370    1.05212850173071
N         6.17623245111908    0.37738512068422    0.97334078086881
C         6.73750753184119    0.22918890672938    2.34894107733062
C         7.03600044005772   -1.28360128357716    2.39469668399187
C         7.93934554284273   -1.18373617002741    1.16819076903224
C         6.98921955182834   -0.59433488499932    0.11225937388762
C         5.93320813525858   -1.37646538229462   -0.73125360197271
C         8.84001485022588    0.00317417987547    1.42058531614186
O         9.81515411061436    0.20529838022925    0.71215331188904
C         8.11613119958106    0.90627582265839    2.39216922511893
H         0.62719113030155   -0.05637659029296    1.04008780395785
H         0.50543778585348   -0.73822279725938   -0.45964287915085
H         0.74023010502927    1.12894821791897   -0.30363680572343
H         2.04277046110828   -1.38939829269122   -2.22226260851908
H         3.72250266112254   -1.82987365518436   -2.43847396616273
H         6.00692301695393    0.60094117654330    3.07161122850829
H         6.16832752213037   -1.93923097459480    2.26900139897626
H         7.62377334115456   -1.54865507189351    3.28072609083398
H         8.52465634040241   -2.04843383798128    0.86172831896215
H         7.58263644302611   -0.00540310649560   -0.59844999748672
H         5.78687411970251   -2.42965042916478   -0.46964159072584
H         6.27220585579506   -1.31011063732445   -1.77079156993737
H         8.03583433835497    1.91098066777625    1.97330832078130
H         8.53072742610545    1.06109432536446    3.39178014227914
