30
 energy: -45.980245592743 gnorm: 0.115802249339 xtb: 6.4.1 (79825abcba525fcdf90b791dcacef51065a7a4e7)
C         1.19428296516247    0.15963515825778   -0.75061383817696
C         2.58941286261613   -0.12593289562803   -0.31490846165953
C         3.09978916558521   -1.30377294520057    0.20516379288211
N         2.45804032136285   -2.45244999902751    0.49042215241198
C         4.46157504489256   -1.18073901823590    0.53456008575375
C         4.88936530091790    0.09879442024478    0.30427779218036
S         3.75512198116041    1.15654363189689   -0.34409304208286
N         6.25033878363698    0.24014775361885    0.23633654085145
C         6.92390226495647    1.23727708571292    1.12025583609448
C         7.00356551540612    0.48069667727315    2.46225643118004
C         7.72996110120214   -0.73298347528493    1.88810304339076
C         6.80946094050502   -1.10393287883054    0.71328374941459
C         5.59369421559828   -2.06916646575855    0.88251067884350
C         8.91694106901713   -0.06029139712162    1.23831206875451
O        10.02124541824264   -0.54806192964287    1.04800052038030
C         8.40165081989842    1.25421152402302    0.69967170998309
H         1.10700754027188    0.32277548961573   -1.82895173129208
H         0.88094455457381    1.08853081167131   -0.26379105017909
H         0.44574070013693   -0.58335647410823   -0.45467585472862
H         1.51731798002928   -2.58710680499098    0.13345392983509
H         3.00958944203495   -3.30278340720933    0.42757591380043
H         6.38789864473519    2.18891091426380    1.15629472035412
H         5.96793339808046    0.34999924835847    2.79224156137751
H         7.62137901390529    1.02357047940099    3.18639254966564
H         7.96717031139270   -1.58594087561588    2.52087905576781
H         7.46576335065652   -1.47637160599542   -0.08336460129491
H         5.70840503570888   -2.39377500900869    1.92199322352109
H         5.56131691873859   -2.95507590022338    0.23902192712561
H         8.50566806276667    1.11446284114232   -0.37781359666048
H         8.94184796029740    2.02713495029181    1.25271529682011
