30
 energy: -45.975867644766 gnorm: 0.122702410666 xtb: 6.4.1 (79825abcba525fcdf90b791dcacef51065a7a4e7)
C         1.14299812410443    0.19521370587345   -0.29414415587815
C         2.60349618760906   -0.05985033649682   -0.15391776054972
C         3.20255529311618   -1.29458032916542    0.03272712951965
N         2.55891217183895   -2.47209771361304   -0.07612701572413
C         4.59939452499757   -1.14025547351093    0.08862033065668
C         4.97936808404235    0.17439771357112    0.06522445626738
S         3.71851181125462    1.26717641323232   -0.13923148821694
N         6.32766737161745    0.37311758210121    0.20467000548464
C         6.76799344740116    1.04856673590176    1.46131211025774
C         6.78937078345332   -0.10256278721513    2.48803971639208
C         7.74889670524243   -0.94316614371201    1.64957792432266
C         6.90549971426985   -1.03628794590699    0.36695006381503
C         5.74422469429593   -2.06985596708834    0.22004929136300
C         8.90257765299305   -0.02903554993528    1.30745233442301
O        10.11318916099508   -0.13799205336786    1.18027162268174
C         8.27117577196825    1.34346563177504    1.34132828878907
H         0.48944252234148    0.03385497832585    0.56833646122023
H         0.74147758417257   -0.34803712738092   -1.15535511244913
H         0.97039135892954    1.26882943405003   -0.42638462051508
H         1.54563415092033   -2.50111593197364   -0.13037541827675
H         3.00215797407387   -3.33630016544665    0.22036964771756
H         6.08051352572761    1.84275237628924    1.76271906614166
H         5.77441388410029   -0.49427107681501    2.61024035332273
H         7.20592724616974    0.14098679594489    3.47188061663520
H         8.11467415150034   -1.92059745622538    1.95787146620014
H         7.50930447928788   -1.10614249100189   -0.54663200804141
H         5.77380340518846   -2.65500327029829    1.14513359506219
H         5.81929604364471   -2.77987719240894   -0.61073091314222
H         8.63030003554092    2.08221712508506    0.62257947009221
H         8.60039231147601    1.78455212638802    2.28585989586973
