30
 energy: -45.979780331732 gnorm: 0.112867075174 xtb: 6.4.1 (79825abcba525fcdf90b791dcacef51065a7a4e7)
C         1.04669075632888    0.13873544096574   -0.13678312601981
C         2.50315286337081   -0.07947412895672    0.08430148475892
C         3.24906915123795   -1.17746004755653   -0.31104909983123
N         2.76445298866817   -2.34871698447376   -0.76489624588205
C         4.63435629775005   -1.00620561598754   -0.13856294781644
C         4.94790566734063    0.29323159630815    0.15535877987374
S         3.58153794883608    1.23019892629683    0.43971336709523
N         6.27254217934841    0.55651341645258    0.38528573801780
C         6.76536508460405    0.95539709641355    1.73705694221412
C         6.83753711417946   -0.38142099270330    2.50349959701605
C         7.67396876114570   -1.07290550108708    1.42992917665566
C         6.99579870454197   -0.76018474959820    0.08552764326633
C         5.88495928527109   -1.77411712211077   -0.33444769691747
C         8.83861348234712   -0.11010818868065    1.44691134555589
O        10.00829393503821   -0.45094268067562    1.54337979013542
C         8.25060804934869    1.28029491138379    1.51476587236793
H         0.46621272087328   -0.76177523462580    0.08496029676201
H         0.72553151004685    0.55527181916072   -1.09666786288576
H         0.74797447500559    0.85268748601696    0.63844098725369
H         1.80487132764237   -2.63167592888413   -0.59269124186172
H         3.45727240837000   -3.02728015484587   -1.06618723534065
H         6.23146932045366    1.84469893020111    2.08100924759214
H         5.88722918500010   -0.84952759877025    2.77971859154482
H         7.46538551389173   -0.29971707040479    3.39787617242783
H         7.83147814646646   -2.10007106807952    1.75293337097039
H         7.73072375639629   -0.72316526635753   -0.72847898005508
H         5.84409705818956   -2.71026543420837    0.23212961304943
H         5.99470516741752   -2.01025535884902   -1.39847596615164
H         8.51506933180026    1.84467224041039    0.61874001969741
H         8.63523328653256    1.84240336860099    2.36985551199004
