30
 energy: -45.974302059892 gnorm: 0.124876781676 xtb: 6.4.1 (79825abcba525fcdf90b791dcacef51065a7a4e7)
C         1.13630889955704    0.18428748418632   -0.18321923826098
C         2.60203567300000   -0.07819312214856   -0.16031416490370
C         3.25351502007124   -1.29961998137316   -0.11607220719161
N         2.58275196230763   -2.46000859836488    0.01139561589740
C         4.64190335144749   -1.09458049308288   -0.02422077857908
C         5.00822127218844    0.22407744218764   -0.01033925409400
S         3.68932348306811    1.26598776687272   -0.03598209287339
N         6.36420445678898    0.35188781658810    0.13737575783566
C         6.79175869508017    1.07888354865788    1.36942387760400
C         6.73225137893642    0.00182282822487    2.47220437714622
C         7.67122833253791   -0.95122336323780    1.73712110957510
C         6.98192890611564   -1.03136697027961    0.36468980619181
C         5.78144206407546   -2.01487027235011    0.19161480526836
C         8.84781092053499   -0.04099694975313    1.47102775211325
O         9.98254016783088   -0.48107867524003    1.35992292213918
C         8.29846191406867    1.34599000885040    1.23007495030310
H         0.56346027876693   -0.69816987658956    0.11704370128289
H         0.77135032681027    0.38149477879900   -1.19610573000427
H         0.92945695529348    1.04294399757934    0.46474112278827
H         1.59193288087695   -2.27834006996359   -0.11426812268919
H         3.05007590463017   -3.30017412828001   -0.31564138444357
H         6.16538766716857    1.94693038148629    1.58933217116745
H         5.70255387541640   -0.31534836113781    2.66619245680610
H         7.29613320315448    0.46008551398880    3.29245507105185
H         8.04121683290388   -1.93304311910524    2.02582250178502
H         7.64717679950141   -1.10381287722150   -0.50495890737645
H         5.62064220911983   -2.66094654275646    1.06097209162415
H         6.11417929368402   -2.63898568961190   -0.64488234092801
H         8.49399133441024    1.87356584999421    0.29479111865627
H         8.54712073464158    1.93435779560965    2.11724625300726
