30
 energy: -45.974195087286 gnorm: 0.128189800490 xtb: 6.4.1 (79825abcba525fcdf90b791dcacef51065a7a4e7)
C         1.02751131301139   -0.11920858528008    0.09409328689012
C         2.50764626421606    0.03549803214593    0.03893809655510
C         3.39865418511213   -0.59104372967335   -0.81652469773416
N         3.07799662327835   -1.34959377502904   -1.88163193685307
C         4.74810503547662   -0.39962888466362   -0.46947599447044
C         4.85507484649818    0.33002666075184    0.68352032563285
S         3.37698721025544    0.81847837158966    1.31786875542367
N         6.16848075442490    0.57260615451186    0.98842314781838
C         6.62099955797590    0.05908949270388    2.31537279484467
C         6.90471386235865   -1.43663341500100    2.06628460553227
C         7.80112120133989   -1.15529973477288    0.86311071260084
C         7.04591089620256   -0.15877953151807   -0.03228263957259
C         6.04761878751500   -0.87544596097689   -0.99571631687134
C         8.82054220697692   -0.18106851711369    1.40654307425452
O         9.96384855262320    0.07702973991065    1.06033134368186
C         8.06570801598707    0.55182795464643    2.49128429311771
H         0.49594731803806    0.73860752771763    0.51674634998311
H         0.87459637079973   -0.92824239477908    0.81527692090924
H         0.60421546633025   -0.29330811031808   -0.90111591410397
H         2.09593807437149   -1.41156584983427   -2.13110689617592
H         3.47079648124900   -2.27523663337556   -1.73979912065113
H         5.94493905893290    0.36223535921314    3.11864760031368
H         5.99315200382817   -1.98707649396402    1.81217187015409
H         7.35504952741446   -2.02502901829293    2.87360548779839
H         8.12785197997540   -1.95831172223409    0.20536550157587
H         7.65445305709877    0.53255829804804   -0.62878955498881
H         6.06271288797756   -1.94337864159088   -0.75416883998505
H         6.25274037496627   -0.61800397350706   -2.04051790152851
H         8.18356962868055    1.63311253279397    2.40042082789508
H         8.65792461850879    0.37331282482489    3.39266802259189
