30
 energy: -45.981664075203 gnorm: 0.123913817421 xtb: 6.4.1 (79825abcba525fcdf90b791dcacef51065a7a4e7)
C         1.14022670841211    0.03960314371584   -0.63869812782002
C         2.56990176460269   -0.12315279308978   -0.25488121883431
C         3.15400106739898   -1.30420698303682    0.17197386285142
N         2.34126828116792   -2.32776456217271    0.49518923447576
C         4.53783891591736   -1.08405560628111    0.29291281349675
C         4.97960728398851    0.19528987571549    0.08955074444015
S         3.70994278301718    1.17203739681390   -0.42000044071171
N         6.33502364881061    0.33121172075298    0.23521257972772
C         6.96135873471806    1.20046550089785    1.27510211230595
C         6.92578749278196    0.25798121529297    2.49583296346049
C         7.70745937638982   -0.83149022830726    1.76620071825355
C         6.86726749042048   -1.08017462048415    0.50233440962810
C         5.61543665155818   -1.96658979687484    0.79489217562826
C         8.94166717787793   -0.09869358310860    1.29354379443157
O        10.06068435154217   -0.51851388646695    1.03824367118556
C         8.47235567182568    1.31127536830848    1.01911770992229
H         0.47159209134740   -0.29395096211856    0.16049757911810
H         0.96512261691250   -0.56571745842124   -1.53365625101698
H         0.85475186618487    1.08855666538885   -0.77335320409627
H         1.43521035563352   -2.49382572770694    0.06857463274813
H         2.93547874278606   -3.12368552878196    0.70648694053714
H         6.43192429978763    2.15441911890013    1.21283410905442
H         5.92666572624019   -0.13200385951137    2.71531696076126
H         7.43978143938545    0.62948827151806    3.38946114933645
H         7.91347170855532   -1.70700708655105    2.37876840269538
H         7.37865246856017   -1.43996120412615   -0.39940339938905
H         5.50660509991407   -2.19339885758920    1.86061567460864
H         5.63741405803030   -2.91880595103753    0.25381641401013
H         8.76271770576402    1.65156786283719    0.02352001085980
H         8.96675191456042    1.99042811660193    1.71869235557939
