30
 energy: -45.976890097072 gnorm: 0.109220881443 xtb: 6.4.1 (79825abcba525fcdf90b791dcacef51065a7a4e7)
C         1.16739585770377    0.21595329838614   -0.00467374364045
C         2.63949003725768   -0.00888179895385    0.00811760478341
C         3.27350322725294   -1.23736367380313   -0.07629718743786
N         2.72003029782216   -2.46128048804790   -0.16777529479325
C         4.66668625883488   -1.05506112910588   -0.01379214761997
C         5.05434615672832    0.25552137696803    0.05923915995273
S         3.75589930710639    1.31424903441893   -0.07808374536955
N         6.40896264881642    0.45687593698537    0.09551737319996
C         6.72409662887432    1.04414806007772    1.43158249408490
C         6.54784589443057   -0.15536585867642    2.38543142331982
C         7.56847147746587   -0.99611386922741    1.62268089281903
C         6.98949633276647   -0.95699490004283    0.19846817743872
C         5.81256209219616   -1.98114295318499    0.13252188276975
C         8.77256981436227   -0.09827650696664    1.45624877983183
O         9.94197296372204   -0.42352959338584    1.31365363499785
C         8.23667057125366    1.31426687810529    1.42295327615986
H         0.92608721477051    0.89492396900303    0.81862045667871
H         0.59429147612676   -0.70641169192316    0.13250759097629
H         0.79914208173642    0.53421264684426   -0.98601543606819
H         1.76988684059756   -2.66112707608640   -0.46409616040148
H         3.36097073906422   -3.24879740640490   -0.18311946982053
H         6.06994865096944    1.85892909079727    1.75162611239725
H         5.53917510612088   -0.58049940184345    2.36670719013083
H         6.87394069240724    0.24517514348195    3.35187215569226
H         7.75518367462704   -2.02151094645676    1.93558567754265
H         7.72955700327631   -1.09343901806959   -0.60014641087296
H         5.95378812166995   -2.59102618999951    1.03093764739242
H         5.83709173670354   -2.63363687048840   -0.74703003453084
H         8.55412617125166    1.91612313036008    0.56953962477977
H         8.64461835854662    1.76792155164531    2.33006783434581
