30
 energy: -45.968495793020 gnorm: 0.128636585487 xtb: 6.4.1 (79825abcba525fcdf90b791dcacef51065a7a4e7)
C         1.13463868711175    0.13987720153318   -0.37464208683934
C         2.60032613652958   -0.10677723063735   -0.28138126726447
C         3.17859589418530   -1.33299885379746    0.00190460424215
N         2.52076423735928   -2.49147394720996    0.19649606628751
C         4.54824254792118   -1.16546742946941    0.27412014072544
C         4.99059401967389    0.11328632231360    0.06831856577543
S         3.74985577072206    1.19054001397657   -0.28639137416020
N         6.34241625893470    0.30890980576297    0.17392968219977
C         6.90277703932525    1.19453081824697    1.23738594312476
C         6.81463193970025    0.27063393776039    2.46960781619104
C         7.62071475317045   -0.79781729583569    1.73546570836666
C         6.87826850960068   -1.10423843502511    0.42397646245955
C         5.68444348426510   -2.10953567418921    0.37336393175160
C         8.90337673003039   -0.07101611669459    1.40349780410572
O        10.05807703570237   -0.45988891032834    1.49874396240552
C         8.41880507879919    1.30618877354761    1.01353317034082
H         0.97352986467199    0.73244812651437   -1.28015189590100
H         0.88306828250548    0.60342863233261    0.58444962836261
H         0.48485795231564   -0.73451318693280   -0.25993456523613
H         1.51549597097963   -2.37572964115062    0.11552538779531
H         2.77072768484244   -2.93754796861136    1.07385529848197
H         6.40420069203318    2.16688912776974    1.24949268678886
H         5.77376522725851    0.02895728163468    2.70771444949461
H         7.27648819068429    0.83286860223425    3.28897317354365
H         7.90702654456111   -1.67092595828949    2.31848958517950
H         7.45911664970815   -1.34696176040202   -0.47479652314885
H         5.66481218168641   -2.68275120355296    1.30615104584847
H         5.68489660876479   -2.73930282639013   -0.52293664003185
H         8.56707071778390    1.39966057068846   -0.06378024357655
H         8.89014947888618    2.17736149538615    1.47610568422920
