30
 energy: -45.973226665792 gnorm: 0.126111583173 xtb: 6.4.1 (79825abcba525fcdf90b791dcacef51065a7a4e7)
C         1.15253849585591    0.29266129776560   -0.59659943503631
C         2.55344598519199   -0.04875524246589   -0.22421702433295
C         3.19328477860849   -1.27178893317921   -0.10993145341046
N         2.41467227055139   -2.35712709178886    0.05881840759361
C         4.59223969341721   -1.23505100915204    0.03033804287882
C         4.99109803004049    0.07017102955535    0.13304013750771
S         3.73323120586041    1.18404873870183    0.08037564281949
N         6.31016071589472    0.37000027440114    0.34988493100657
C         6.78811449310110    0.98955540167236    1.62149006850220
C         6.95834061500396   -0.17582249040217    2.61780487042119
C         7.82882451722210   -0.94895646268699    1.63046308069955
C         6.91747523218556   -1.03563396366395    0.39472286850046
C         5.75891854974707   -2.08223291996906    0.36680502406967
C         8.86822686533216    0.07261461557690    1.23083865983637
O        10.05330320876151   -0.10878879691945    0.99353392798289
C         8.21922633359153    1.43623292979055    1.28486466941799
H         0.36800348892727    0.15264078028391    0.15302944426591
H         0.87837134242429   -0.37287739965338   -1.42116910181845
H         1.07785322605964    1.28660786449183   -1.05093819030990
H         1.49350431295739   -2.24327357793805   -0.35228286271122
H         2.83994090553464   -3.21628657504365   -0.27616599642356
H         6.11721683573935    1.79509654546331    1.93004383319110
H         6.01165529852545   -0.70222658864475    2.77652324908276
H         7.47997990146509    0.20456565922224    3.50322901365588
H         8.14712251840296   -1.92431293049622    1.99319736575407
H         7.58388730783916   -1.15376906589742   -0.46900804986044
H         5.63245770688937   -2.70416103181970    1.25914258324761
H         5.97198613660329   -2.90566828842569   -0.32349780365937
H         8.21958254355097    2.13686994821435    0.44794680636451
H         8.63110400854251    1.88575474577387    2.19226077905764
