30
 energy: -45.978145381235 gnorm: 0.121167145765 xtb: 6.4.1 (79825abcba525fcdf90b791dcacef51065a7a4e7)
C         1.11351687516289    0.17979999349164   -0.40057985699646
C         2.53184346455163   -0.13422022903413   -0.07268248824185
C         3.21815037356384   -1.33484432790914   -0.14851704639032
N         2.61525804044638   -2.49316944862337   -0.47635334872306
C         4.56028255383068   -1.05231207258188    0.16286182121383
C         4.92019956745552    0.26679393782885    0.22335457362781
S         3.57054467415322    1.24973864648819    0.02847651391381
N         6.27564479414835    0.43234587017930    0.33383737300070
C         6.88709605498652    1.15560011326130    1.48808980220403
C         6.89787461481603    0.05368937747489    2.56762780746395
C         7.72330511832450   -0.93536036066562    1.74862397632745
C         6.89885615904071   -0.96214589885766    0.45066756846219
C         5.71130999643522   -1.96871789332521    0.32840023156560
C         8.92888858122049   -0.12778259524844    1.32666301022142
O        10.09905644360833   -0.46606804881760    1.22718033838630
C         8.39168755067484    1.27914462293845    1.20197834056841
H         0.42257729741402   -0.63133801901877   -0.15218098766790
H         0.95069794758204    0.23210260885858   -1.48168066448799
H         0.65677194198852    1.07503743800940    0.03515556525122
H         1.64410397547330   -2.56775417516937   -0.19032154800870
H         3.14730191665985   -3.31284745971379   -0.20016453931515
H         6.41801074733310    2.13948150502674    1.56646080307738
H         5.90940371459056   -0.32604588640623    2.84553480205542
H         7.49375283844086    0.42589019044824    3.40856436919735
H         7.99994492588615   -1.92028592931921    2.11957149558131
H         7.53886137830107   -1.11286183913579   -0.42783689115335
H         5.51644395088781   -2.65795209313314    1.15667354309297
H         5.75362568364803   -2.57345329720485   -0.58399555008704
H         8.64295116053502    1.75672785565851    0.25323984924444
H         9.01408838507778    1.80189349027288    1.93302663480947
