30
 energy: -45.980627544285 gnorm: 0.105703317952 xtb: 6.4.1 (79825abcba525fcdf90b791dcacef51065a7a4e7)
C         1.14473710094924    0.21750142686844   -0.44218910215525
C         2.58714990793943   -0.05530728261500   -0.19159698575647
C         3.21298494631794   -1.28968541958437   -0.13767661129046
N         2.62547375949553   -2.50109098703743   -0.13787175358973
C         4.56940288556185   -1.12941515007406    0.19779895852602
C         4.96213602969062    0.18163658439009    0.18578672799269
S         3.68208013956137    1.26420289331251    0.06236405237646
N         6.31187616824922    0.40075604559126    0.26965467127416
C         6.78579332238862    1.08959074523366    1.50665801793686
C         6.83778398594818   -0.06482839096365    2.52858716208368
C         7.72502915744414   -0.95096285064728    1.65802188771234
C         6.91441001147389   -1.00522484156863    0.35223606565349
C         5.73265634481954   -2.02530306426635    0.38830615374853
C         8.86808199668905   -0.06398563206061    1.22171235872682
O        10.06409491161320   -0.27072587167137    1.07874993879404
C         8.27863866387798    1.32743019341859    1.23140584822077
H         0.40485563245511   -0.28489734311942    0.18806106109829
H         0.85094180880131   -0.09697734375948   -1.44857469078067
H         1.06431094275366    1.30995042295345   -0.44645402286079
H         1.61055968086734   -2.48182471592455   -0.14764487012036
H         3.19024876230853   -3.33793201348882   -0.24718452756653
H         6.26415919974407    1.98002354650740    1.86614779008015
H         5.82932967381702   -0.44464943815176    2.72162021431404
H         7.30636308450218    0.28123658508219    3.45673115049311
H         7.94654255984592   -1.95554016639713    2.01293912591910
H         7.49942169729367   -1.18016337212459   -0.55949300203253
H         5.54149659245570   -2.51288695636950    1.34995740210928
H         5.95542073374352   -2.80819654799756   -0.34478007310529
H         8.54088539026176    1.79911580412800    0.28268923785271
H         8.68016851997798    1.86750418157783    2.09290143375645
