30
 energy: -45.980181834633 gnorm: 0.113824451313 xtb: 6.4.1 (79825abcba525fcdf90b791dcacef51065a7a4e7)
C         1.16247996212783    0.24659674203614   -0.46746410860192
C         2.58233825123615   -0.05863994233794   -0.13790573932620
C         3.20375565492928   -1.29476717425844   -0.07390430848397
N         2.64246495705202   -2.47534148535301   -0.39619292254680
C         4.58134342150692   -1.14144033711829    0.16451317355363
C         4.94260959055293    0.17690150757452    0.23308305362533
S         3.66155527905297    1.26324126560675    0.16606170925389
N         6.29824228167083    0.36520416696882    0.29347965831308
C         6.82474224076747    1.12601048437545    1.46533269580982
C         6.86794811841823    0.00853609363770    2.52792856728673
C         7.70834601894282   -0.97113191597821    1.71288002043936
C         6.87432405424808   -1.04829569670558    0.42308255779038
C         5.69580305428574   -2.07228761381926    0.45359768228343
C         8.82708475183817   -0.07312510389350    1.23783076054280
O        10.00752279873109   -0.34992188490980    1.08428522018023
C         8.32037173484461    1.34984700810236    1.19347206020608
H         0.59379440974298    0.12739909347030    0.45959200309528
H         0.81487754161910   -0.52254343767983   -1.16432884735300
H         0.96605080836090    1.26498867157432   -0.81991955567622
H         1.67560523014935   -2.53856514508163   -0.69901685793843
H         3.17192567704639   -3.23817885025772   -0.80725678368785
H         6.22994798754347    2.02759331639795    1.63138636896574
H         5.95461981693582   -0.41782971979153    2.95518668025852
H         7.35051440171479    0.45633135869879    3.40393529403553
H         8.04549665361188   -1.88166543543491    2.20427413848335
H         7.54339296712313   -1.13385294582949   -0.44243393904657
H         5.62320812029929   -2.63978124199782    1.38726475391179
H         5.74584992245601   -2.80793282737325   -0.35651528575171
H         8.58320375704361    1.89355151686753    0.28428087872212
H         8.84831885831003    1.85373572564528    2.00738162437578
