30
 energy: -45.982014881187 gnorm: 0.112376361892 xtb: 6.4.1 (79825abcba525fcdf90b791dcacef51065a7a4e7)
C         1.10900707702746    0.17239944040787   -0.19362221855732
C         2.56826955481002   -0.10772139906491   -0.09431947430837
C         3.20419905414356   -1.33808568904222   -0.08633985682233
N         2.63776411166696   -2.55298929103116   -0.21217142684504
C         4.58914416653318   -1.10873357321311   -0.00017315222158
C         4.95533935344124    0.20867126346966    0.05970895118176
S         3.63999857507276    1.25246499972706   -0.01838932617227
N         6.28699959903053    0.48203437150056    0.22941231541587
C         6.82428328682195    1.15940864615346    1.44668727801602
C         6.78482919391620    0.05523966970110    2.52324661087826
C         7.65627610225065   -0.89887460862548    1.71049301763884
C         6.92250331298242   -0.90577059857191    0.35895525703280
C         5.77640434792762   -1.95978939809814    0.24104046954921
C         8.91857453004347   -0.12877577691441    1.39870004737687
O        10.08324244009517   -0.47191984673707    1.25931754535857
C         8.34613846035699    1.26305316772349    1.26193548923133
H         0.66326104474731    0.01519804981407    0.79311106183299
H         0.69086629576800   -0.46609821882075   -0.97816255950486
H         1.04063099654353    1.21214237206714   -0.53154338244657
H         1.62998136725147   -2.51528882515102   -0.09611150824697
H         3.04770418917363   -3.30341715855178   -0.75992150016466
H         6.27006176588809    2.09203595247411    1.57802821698264
H         5.82842462848153   -0.44156916378639    2.71554112025761
H         7.30917161669985    0.22551292632995    3.47026859890395
H         7.79633946698996   -1.91355124432335    2.07794858854291
H         7.62881320073265   -1.07228576055539   -0.46414321848120
H         5.71654615747110   -2.54426668962354    1.16508404568711
H         5.97155734006270   -2.62394566702297   -0.60794324768777
H         8.64849550696273    1.74279249412541    0.32932932134435
H         8.63908106822017    1.98425704664591    2.02948377894069
