30
 energy: -45.975385041858 gnorm: 0.116574610750 xtb: 6.4.1 (79825abcba525fcdf90b791dcacef51065a7a4e7)
C         1.17629280430294    0.25867780783226   -0.62658054342894
C         2.56183026291462   -0.15238467627678   -0.26729059011323
C         3.19239972892397   -1.32880876801093    0.10240491985429
N         2.48101883687205   -2.46473719964172    0.22998509020932
C         4.57833246106974   -1.16941618603705    0.28096725025005
C         4.98934074294931    0.12746279874875    0.13124299526306
S         3.69635022096213    1.15525057750228   -0.18109311047456
N         6.34916648789414    0.28705850300314    0.17866413128530
C         6.87953213648469    1.20579521422634    1.22933207326628
C         6.94282458769701    0.34621247910853    2.50872151100822
C         7.68072856753362   -0.78635866860872    1.79942433529191
C         6.86594179849098   -1.11006885358058    0.53591390440697
C         5.64713837217751   -2.04712132069840    0.80950709581615
C         8.87754858231538   -0.06137193214155    1.22874012553392
O        10.00858730135574   -0.52101808735020    1.17303106003147
C         8.35656442919426    1.29561513397871    0.81553676200396
H         0.66508035671425    0.79009061217362    0.18169331774221
H         0.75804812286433   -0.72552241240267   -0.85991683197969
H         1.25456516315456    0.88215524825051   -1.52384342760165
H         1.51140940271628   -2.50341801779910   -0.06814010478983
H         2.69309182374467   -3.34110119715483    0.69714051047063
H         6.30808498177696    2.13409653754580    1.30621138327727
H         5.98271575591138    0.11468336578781    2.98104680992072
H         7.62152745689676    0.86145031717873    3.19768521620750
H         7.92962907918304   -1.69799409459429    2.33903475091708
H         7.54040302507613   -1.55549108942270   -0.20624048610431
H         5.46769778814866   -2.38187826065948    1.83653781530195
H         5.72870341134432   -2.95573393360825    0.20309811644530
H         8.46837130911397    1.53581538174822   -0.24329605267911
H         8.84890430664228    2.08166688162793    1.39416002187068
