30
 energy: -45.978938237582 gnorm: 0.118871540527 xtb: 6.4.1 (79825abcba525fcdf90b791dcacef51065a7a4e7)
C         1.07424328361428    0.13071272778380    0.01045215313607
C         2.54868515893020   -0.06327973876075   -0.06805752182941
C         3.19988669115889   -1.28428201523269   -0.12599082090250
N         2.59098192072376   -2.47864277832490   -0.00185294597738
C         4.58707667460939   -1.11466515620337    0.03223087235331
C         5.01387895468744    0.18574075243528    0.02727553782980
S         3.71113166539167    1.20757910940057   -0.26327898519801
N         6.36479255520354    0.39502612378749    0.11715155399250
C         6.89368975948627    1.20841413696085    1.25202409500191
C         6.78612111307838    0.27632313299885    2.47650810684936
C         7.55534800211174   -0.85456951361519    1.79850074027135
C         6.89720962187419   -1.00965805810282    0.41722386820400
C         5.73157162690850   -2.03224771277186    0.23283074459730
C         8.85560898992066   -0.15668712561931    1.47300738545739
O        10.00985027295694   -0.55831872669659    1.46624037140024
C         8.42313542828303    1.24481557094644    1.10923242930854
H         0.90680489740460    1.02291376310656    0.62117800642715
H         0.55875196535788   -0.71636285465877    0.47387008689276
H         0.65913831624266    0.38131043537698   -0.97180037104477
H         1.71367742199324   -2.54909637103891   -0.50770904267972
H         3.18671106653451   -3.28931949270275   -0.14017514540886
H         6.35556651787523    2.15941783428023    1.23715896226146
H         5.73544058322890    0.00585788257061    2.62288043929090
H         7.23928136622289    0.59152767308627    3.42311810404824
H         7.64129376461668   -1.60278983740745    2.58398765524536
H         7.65971281950709   -1.33351717107514   -0.30235670747950
H         5.60215935749313   -2.73139417277565    1.06559717463141
H         5.89539590903964   -2.69131185262095   -0.62667938000432
H         8.73505105353230    1.64139900676942    0.14137185549950
H         8.87247782881095    1.89350679786388    1.86578505970628
