30
 energy: -45.976149628733 gnorm: 0.137120361186 xtb: 6.4.1 (79825abcba525fcdf90b791dcacef51065a7a4e7)
C         1.12906396495434    0.25568869864926   -0.22134706340614
C         2.58972974349776   -0.03309576065846   -0.19245552871913
C         3.17441007593402   -1.28090473627129   -0.05321489414392
N         2.59106624928023   -2.49021399407822   -0.15298452577094
C         4.57432470607623   -1.14754423026830   -0.02967657861764
C         5.03786655542138    0.13989120713052   -0.00002504139004
S         3.76336542715815    1.23472332615245   -0.05213601558252
N         6.37465626922493    0.38237585190698    0.17615687841371
C         6.77239236494288    0.99480829247934    1.47846271566871
C         6.76863426118784   -0.12327373180035    2.54129111752709
C         7.69059130755909   -0.95107062435636    1.64962431734655
C         6.99055386323472   -1.01624826631634    0.28184369528405
C         5.77146868508554   -1.98845418471298    0.19788331183177
C         8.84032711056705    0.00420897605903    1.42778461386093
O         9.99685139145542   -0.34943100915794    1.25166811405850
C         8.24509902821560    1.38524969273320    1.27944218930535
H         0.56772809025658   -0.54065220919635    0.27643558787633
H         0.77629301917834    0.29609817225554   -1.25669447151580
H         0.96114470161955    1.26603564691428    0.16715458880881
H         1.57604272448791   -2.47458656165244   -0.15354601230720
H         2.87438784347523   -3.27301958051985    0.42853699491806
H         6.23166601863966    1.92357836091346    1.67646979576203
H         5.74181617173627   -0.45595588950559    2.72424761638866
H         7.16308537713960    0.29594540933578    3.47372997971033
H         7.98980534663965   -1.88380086977607    2.12364464037885
H         7.76251542117542   -1.18224167784602   -0.48013635580070
H         5.79774074640698   -2.53268951023913    1.14771009998301
H         6.02313393551198   -2.63315993380152   -0.65122250559309
H         8.29317214957006    1.79240440943595    0.26788997677374
H         8.54730656287889    2.09075550467361    2.05791051729785
