30
 energy: -45.972045398441 gnorm: 0.113540041630 xtb: 6.4.1 (79825abcba525fcdf90b791dcacef51065a7a4e7)
C         1.12295353350825    0.12195373383002   -0.07562999145963
C         2.60736731289566    0.00342640436210   -0.09120938463591
C         3.26949495093451   -1.20800314052518    0.01965873556271
N         2.58544278196809   -2.36509589578238    0.09635209779972
C         4.67096643799705   -1.10063076385994    0.06914518661689
C         5.05607013127749    0.21016275003871   -0.01304837755916
S         3.77351334014143    1.28179032554338   -0.19301636322547
N         6.40344282777472    0.41198365199988    0.13082918887791
C         6.71253408787692    1.03625506213739    1.45144108708052
C         6.61789307401233   -0.17045891691126    2.40779363554978
C         7.66784442137331   -0.94038842052948    1.61084137872659
C         7.01095165195782   -0.99137286248079    0.22123105493582
C         5.83882049918978   -2.01064229999364    0.06122875890801
C         8.83354115621994    0.01052541221509    1.46738967857160
O        10.00144634564447   -0.34909718533591    1.45019291531322
C         8.20799033501843    1.38403086082178    1.39159813063491
H         0.79998167252218   -0.23458850203843    0.90702517902306
H         0.56847085280505   -0.48759022965613   -0.79606711078620
H         0.82651614118135    1.16360142201311   -0.24002688305607
H         1.57441307963934   -2.43253094760120    0.15790493611579
H         3.09294819112488   -3.14522385701500   -0.30992565035390
H         6.10034831347266    1.93296174723522    1.57534154297304
H         5.71528625456981   -0.78661226433250    2.47230618372634
H         6.78095311038440    0.02752573858351    3.47315371714874
H         7.94369442296671   -1.92983447484892    1.97016476909619
H         7.76556164895676   -1.14758610122178   -0.55995601166097
H         5.75688801873160   -2.75832076540677    0.85704106000544
H         5.98651348944601   -2.42223792734182   -0.94313044497956
H         8.45703935002910    1.53026573745194    0.33902328043833
H         8.66040355300865    2.14135728901734    2.03724489515303
