30
 energy: -45.978113799412 gnorm: 0.116820623645 xtb: 6.4.1 (79825abcba525fcdf90b791dcacef51065a7a4e7)
C         1.04976600070217    0.21077204995391   -0.14350887006776
C         2.49072532750423   -0.00806454960652    0.16230554826125
C         3.24038381331319   -1.05060364042327   -0.35672303830621
N         2.80976517405838   -2.14358587318535   -1.01446941560323
C         4.63066508491657   -0.87405117547024   -0.23820196744891
C         4.97268137348880    0.32227982355259    0.33193596087399
S         3.59585796280131    1.15451029312826    0.81925083726359
N         6.30561352503262    0.55271794739510    0.54881324994470
C         6.70227939954364    0.64988595124862    1.98494783719966
C         6.85715775935092   -0.82707754004894    2.40246105290944
C         7.78723590981189   -1.15357704302767    1.23683895244299
C         6.94995945697435   -0.73161085021358    0.01780775897535
C         5.83648289210657   -1.68631347869584   -0.51802354519515
C         8.82584629183575   -0.06796894882114    1.39934411039711
O        10.01045429504352   -0.07070728520210    1.09880617024258
C         8.15156232478989    1.15992669152473    1.96607935228931
H         0.98571552167182    0.34638803171600   -1.22727554780313
H         0.74680195462819    1.20164564278423    0.20920465419402
H         0.36977905118453   -0.55444516106603    0.24635231019445
H         2.00351174146197   -2.18034262212848   -1.63019795749624
H         3.50666835949045   -2.75141117108147   -1.43410895449196
H         6.00161439327052    1.20216222708060    2.61603031224359
H         5.96082581181408   -1.45561795516118    2.40810672333124
H         7.29350626757863   -0.98155298583597    3.39569613023704
H         8.25887771256899   -2.12498606644986    1.10219669976859
H         7.58340425462710   -0.50526493116557   -0.84914510403408
H         5.73578564180759   -2.66044638391618   -0.02814766783231
H         6.09498876021598   -1.79617151797460   -1.57682830404578
H         8.31748029969927    2.01862518458182    1.31306174817304
H         8.48058302294195    1.53578458193763    2.93847690963731
