30
 energy: -45.979717743302 gnorm: 0.120713041078 xtb: 6.4.1 (79825abcba525fcdf90b791dcacef51065a7a4e7)
C         1.03725201597002   -0.06788350785184    0.10324455824841
C         2.52624584432878   -0.07220697950773    0.12882508900975
C         3.31024056181806   -0.91248337678719   -0.64419115473079
N         2.76903463074669   -1.83608033276632   -1.46073121551894
C         4.67659166753326   -0.64191870645196   -0.44930797036427
C         4.94087374114652    0.47058752363066    0.30283905359639
S         3.51123793101074    1.13959584541912    0.88102187683921
N         6.25865048300224    0.65258832723769    0.63023146148825
C         6.66790545044565    0.52945293303016    2.06083135166851
C         6.88115455463395   -0.98216622677497    2.28277297841921
C         7.81739641034087   -1.14003942492461    1.08742808493934
C         7.01397099130772   -0.49193181128955   -0.05256686994933
C         5.91883646512919   -1.41550803220089   -0.67392803266287
C         8.86201510100303   -0.13342476752442    1.51070472056534
O        10.05947428593680   -0.35199241564812    1.40140532282758
C         8.11814505346215    1.03402945600718    2.11674382636296
H         0.71971280148478   -0.18559741732792   -0.93711915148759
H         0.68798469485862    0.91623087882923    0.43120145955012
H         0.79926602472099   -0.90118403285162    0.77324773834116
H         1.82565206608360   -2.11857637432748   -1.21427105905278
H         3.30947933416365   -2.69539858850969   -1.43399855921079
H         5.97308929897807    1.04053275962491    2.73182580475463
H         5.97024001321004   -1.58582546408447    2.21692382071176
H         7.40431695700519   -1.26866766148460    3.20200996215436
H         8.29730539295672   -2.08626988966834    0.84546673549259
H         7.60185541734803   -0.02310335629998   -0.85174384555496
H         5.82289415477377   -2.40060472884048   -0.20549148067832
H         6.13398801172212   -1.50924345439664   -1.74392105644772
H         8.43319291461072    1.88700539380527    1.51300483950567
H         8.32151124916778    1.34387173793091    3.14519933571662
