30
 energy: -45.972783207512 gnorm: 0.119999857918 xtb: 6.4.1 (79825abcba525fcdf90b791dcacef51065a7a4e7)
C         1.17129832207550    0.20001123090939   -0.11728485199669
C         2.63610287871684   -0.06698126106198   -0.14623876808628
C         3.28212408011386   -1.28511859236794   -0.01560820351054
N         2.73757524786464   -2.51239664684984    0.08403133468853
C         4.67412069967608   -1.09165908079637    0.03933609789691
C         5.01757269110707    0.23100682391302    0.11572916266563
S         3.72300116961626    1.28229606836884   -0.09546162067958
N         6.35683326735951    0.51946328230065    0.11130374628180
C         6.78818936253109    1.15436570173830    1.39196717582207
C         6.58618049329956   -0.00154667457608    2.39335857740963
C         7.49468529151352   -0.94948611847258    1.61467249687588
C         6.94898811790220   -0.89176038068999    0.17800736462421
C         5.84968430469273   -1.99171960356262    0.03650407030686
C         8.75355691307034   -0.12087714239979    1.50370499151213
O         9.92223092596108   -0.47772263262429    1.52581876433301
C         8.31508547723201    1.31489115243179    1.33082466427646
H         0.66066818556868   -0.33900516664246    0.68630867825467
H         0.71628838871059   -0.39017421878694   -0.91895287327885
H         0.92848857756147    1.26720907729273   -0.16271126580719
H         1.78412899704738   -2.73345515338911   -0.18539524469820
H         3.25751276297609   -3.37782624703643   -0.02514550290699
H         6.30744782256765    2.10099347848573    1.65078960167793
H         5.55657534982954   -0.37152347619092    2.43255425062550
H         6.88706464852072    0.08851232943038    3.44318556452056
H         7.61609465328057   -1.95605593945433    2.01000397417302
H         7.77247114975955   -1.07619085174925   -0.52338635457955
H         5.83468034662473   -2.76875939067723    0.80789066784159
H         5.89981094492781   -2.37499184136831   -0.98845997469534
H         8.68243157016869    1.51934796182946    0.32356197376557
H         8.77439525508130    2.04375134969291    2.00378686477050
