30
 energy: -45.975045874986 gnorm: 0.120041028908 xtb: 6.4.1 (79825abcba525fcdf90b791dcacef51065a7a4e7)
C         1.17432385166382    0.08516566446540   -0.38507826569300
C         2.62434138912109   -0.05259338271326   -0.07484080382455
C         3.15006279823145   -1.25449416659801    0.36936385600208
N         2.47093871238755   -2.38457622071182    0.64208699004661
C         4.54636820703851   -1.11368542872496    0.27660538222802
C         5.04614705403368    0.11731475324179   -0.05218012612077
S         3.79603793084981    1.16865258929641   -0.44922165152890
N         6.41138498193221    0.21948063542658   -0.00184992329395
C         6.91472486699607    1.19512469992702    1.01009651683992
C         6.74234700760390    0.37889527379987    2.30770244145250
C         7.58326145631658   -0.77851473600659    1.77517345408896
C         6.90142172714438   -1.15963602043619    0.45042234106447
C         5.63169999146844   -2.04303942461791    0.66444917059119
C         8.85914960532122   -0.06548397124568    1.39129726361791
O         9.98155730609559   -0.49783787746786    1.60785606617319
C         8.43796093352133    1.26978213446362    0.82275533763418
H         0.95265511585164   -0.35635470727233   -1.36127860646956
H         0.85548540584922    1.12421408026457   -0.51448057661235
H         0.64140012450350   -0.38490115704775    0.44856485455591
H         1.52691704603312   -2.26124972742418    0.28976476003980
H         2.83839123845514   -3.32138024889407    0.77846825669182
H         6.46038397702676    2.14155254943253    0.70669200265509
H         5.71094971597593    0.07685724865520    2.51626547976422
H         7.24961602417422    0.83684996243872    3.16428533086947
H         7.79101061373149   -1.71873948428762    2.28215246567413
H         7.58397297407503   -1.51361892462971   -0.33246459021733
H         5.50941836765027   -2.36148215126215    1.70497531601821
H         5.66838062659181   -2.86821863726005   -0.05506134298314
H         8.72993680045225    1.46842643480781   -0.21001491597858
H         8.79650550321919    2.13084285105209    1.39293163570403
