30
 energy: -45.981565256993 gnorm: 0.121378898341 xtb: 6.4.1 (79825abcba525fcdf90b791dcacef51065a7a4e7)
C         1.11602104667806    0.16174934344611   -0.54457717186387
C         2.56942735706007   -0.06341209548018   -0.31072220807450
C         3.17091605620495   -1.22612818156631    0.14157078605386
N         2.47578793058852   -2.33947977514879    0.44143409743116
C         4.54507623952223   -1.13124084843810    0.42578945139279
C         4.97808800558657    0.14426971076295    0.18327369895117
S         3.80355421469652    1.14036598877062   -0.49051308308058
N         6.33990921461612    0.29146389596298    0.15832432831159
C         6.87197828559481    1.13995082390136    1.26568173287589
C         6.87293616912183    0.24892574259453    2.52496690020309
C         7.67621429203765   -0.83902517953722    1.81685022887595
C         6.89725516929450   -1.09017362185914    0.51482429935178
C         5.67116846105625   -2.00731593400329    0.82135933158244
C         8.87452494048216   -0.06779333209708    1.31394127902446
O         9.97296204845039   -0.52511188292260    1.03479555491531
C         8.36344247545080    1.30262252245773    0.93403273111180
H         0.59158547422493   -0.35601650216680    0.26408235794564
H         0.86093953530363   -0.10172339653189   -1.57585795973995
H         0.86634037307070    1.21809779411298   -0.39720388978878
H         1.67079540416495   -2.68425085708069   -0.07202206533457
H         3.11051200290578   -3.04192207765181    0.80875296040507
H         6.28556159688938    2.06198583981853    1.25254705593147
H         5.85822330592434   -0.10791231315273    2.72875672689252
H         7.33099071979723    0.79003711823249    3.36052845402340
H         7.89476477099253   -1.73370067890673    2.39650655464012
H         7.43971185378012   -1.53726121484017   -0.32775832894584
H         5.61079773112290   -2.36724510551105    1.85376409923523
H         5.74770988625493   -2.90356878765702    0.19619229092158
H         8.48755574498328    1.63179711377124   -0.09919708444186
H         8.78126139784563    2.06958543555275    1.59150974210227
