30
 energy: -45.982994855186 gnorm: 0.110129799627 xtb: 6.4.1 (79825abcba525fcdf90b791dcacef51065a7a4e7)
C         1.07900585168189    0.13582804220428   -0.08490186086654
C         2.55206881934818   -0.07795927287740   -0.13133650796743
C         3.23437436579592   -1.28287662206299   -0.16132977831214
N         2.60606936936548   -2.47310674554334   -0.19679748069556
C         4.63297941755080   -1.13500827636919   -0.14954423857080
C         4.97698868073174    0.15219974191288    0.16349473403049
S         3.68431720049726    1.22124551047712    0.05455606879230
N         6.32599491061260    0.38900270080438    0.19435170956648
C         6.84012770417898    1.18871494133833    1.34561006001823
C         6.77728006494036    0.14209198232794    2.47713836282092
C         7.62321779765810   -0.89268742962942    1.73961338406988
C         6.95357386761192   -0.99866090902595    0.35922539163884
C         5.81241979852842   -2.01204831764547    0.02874739002478
C         8.87126529882286   -0.06480918308162    1.53797154466394
O        10.03252140771820   -0.43234411707536    1.63811642006337
C         8.34507826703481    1.26314340207452    1.04477326147265
H         0.67694304961513   -0.37186322231034    0.79693681802696
H         0.52227179886602   -0.14041921725376   -0.98587864848293
H         0.82400561756417    1.19405482343062    0.03782682052753
H         1.60250792065430   -2.43115243376538   -0.34384013625424
H         3.09736651581980   -3.34758941304282   -0.35532245798598
H         6.14849441216152    2.03435949850021    1.37270794044498
H         5.73410229064037   -0.13159594473593    2.66523657293059
H         7.24927521727709    0.45909029468805    3.41389406646149
H         7.86413331539877   -1.82344422728056    2.24937952236700
H         7.72374461070939   -1.08703520766906   -0.41738201442479
H         5.66967360500124   -2.68194204202134    0.88310045103182
H         6.06595901518491   -2.67677697664537   -0.80420835295324
H         8.54908755320737    1.42810270115376   -0.01470420795664
H         8.84506425795106    2.08499659081869    1.56405365541223
