30
 energy: -45.976347076562 gnorm: 0.114643963474 xtb: 6.4.1 (79825abcba525fcdf90b791dcacef51065a7a4e7)
C         1.02601304805311   -0.18061909992400    0.13466365776591
C         2.50457008596138   -0.05051066636743    0.01335172389593
C         3.38922840743263   -0.54525284526419   -0.93051061290607
N         2.96924692908479   -1.20602277965647   -2.02580579114916
C         4.72859157521318   -0.46335520903261   -0.50920415474150
C         4.87138184442471    0.21562024955141    0.67056002981212
S         3.39743623792953    0.79222557608272    1.23689623686050
N         6.17082060789688    0.50853337316616    0.99072625863896
C         6.59960936057124    0.10380611406011    2.36244198865515
C         6.98457407349792   -1.38587414191759    2.25117360691935
C         7.83266182672389   -1.18838461207663    0.99735255763018
C         7.04411748040591   -0.29677127852397    0.02352102312715
C         6.04698380955719   -0.92191770144452   -1.00279216284874
C         8.81778613933594   -0.13428139840693    1.44686439050337
O         9.99803492430510   -0.02465976682095    1.14916894867504
C         8.00375206937923    0.72736934702061    2.38413805996693
H         0.68153706892392    0.42026743682830    0.98160878113979
H         0.68679281825486   -1.14447869120451    0.52700132849303
H         0.42313490443523    0.06330491938399   -0.74679558271424
H         1.95553877369491   -1.25423191218159   -2.05007386027509
H         3.50114293973368   -2.00522684248353   -2.35683824671922
H         5.87861871998382    0.49174219716059    3.08624010803594
H         6.18772709204374   -2.13240590906279    2.17223630859968
H         7.48071047795639   -1.63060573261659    3.19707725938387
H         8.24469749419982   -2.08054430027333    0.52992586006172
H         7.73310185457712    0.36039027079004   -0.52194326208534
H         6.22782239446897   -2.00189436405525   -1.00381798661212
H         6.38356084643813   -0.53858215593721   -1.97218958051633
H         7.93162947402548    1.72584568094850    1.94920449218385
H         8.51281507726157    0.80390346801400    3.34854366174651
