30
 energy: -45.974387116834 gnorm: 0.133841161301 xtb: 6.4.1 (79825abcba525fcdf90b791dcacef51065a7a4e7)
C         1.06009537874666    0.11104632099958   -0.18982155261370
C         2.50222143369058   -0.03889495765692    0.15012807852158
C         3.33193818168597   -0.66521378245248   -0.76505558099392
N         3.03370023489908   -1.35766089987053   -1.88051243796923
C         4.67460452021951   -0.54942703614255   -0.36263716444369
C         4.80283993274621    0.25550400271460    0.73685453140627
S         3.35548013284847    0.72603234690237    1.45063234334989
N         6.10186741691154    0.51730454506698    1.08446596648119
C         6.70220618847473   -0.04561697355811    2.33025115274777
C         7.06067081968625   -1.50983672228722    2.00270056068814
C         7.89865387733507   -1.13650601744293    0.78256501280089
C         6.98686971485562   -0.15349386966932    0.02926484551168
C         5.99717995449935   -0.85595398101098   -0.95331661931298
C         8.85297722749073   -0.15856190776095    1.42797701333627
O         9.95762754570770    0.20668554377789    1.05385317212846
C         8.07925198268176    0.62267400070634    2.46460380741178
H         0.96709278396894    0.63523253722353   -1.14565820144291
H         0.52710349333969    0.61567264463732    0.62214916379103
H         0.73575284513667   -0.93521434655473   -0.18134224392267
H         2.05002030745731   -1.40901934304651   -2.12597811736583
H         3.33577484556774   -2.32585249174598   -1.82972906103233
H         6.06850666076436    0.16480188589941    3.19532597234598
H         6.15715623437354   -2.05357713480540    1.70856853838235
H         7.51570167170673   -2.16563434424957    2.75347017172027
H         8.31528774282271   -1.95759662887964    0.20253359081752
H         7.59661262275205    0.61386967776085   -0.46415062986647
H         6.13377640971259   -1.93895084469629   -1.03999092993285
H         6.01974002433829   -0.35315454923150   -1.92627364001136
H         8.08876120936244    1.70260727809675    2.30656089890599
H         8.53026460923100    0.60218466503419    3.46021848348903
