30
 energy: -45.974828975310 gnorm: 0.127663765597 xtb: 6.4.1 (79825abcba525fcdf90b791dcacef51065a7a4e7)
C         1.11154086452878    0.21758376381524   -0.43008214299473
C         2.54897983992750   -0.08961078171338   -0.19096626719047
C         3.23695812676781   -1.29005201038357   -0.12857224991090
N         2.66266794607619   -2.48437530115442   -0.36617599508152
C         4.59688667764293   -1.13227279431395    0.19360797691123
C         4.90478447630433    0.19927036271443    0.26731028915312
S         3.61670413528208    1.25571315456722    0.04257997556233
N         6.24661270678371    0.46634805832944    0.33810657349990
C         6.88216364359737    1.15094927153454    1.50286585296801
C         6.85629062274504    0.01341472470407    2.54453350035308
C         7.62811555404232   -0.97868774206150    1.67831116072551
C         6.92904599360534   -0.90484497221511    0.31047587578255
C         5.80428049810809   -1.98675673499893    0.25782728113795
C         8.84389083103115   -0.15548241397257    1.32069705931096
O        10.02744525837478   -0.45811776300951    1.28551987491658
C         8.37076381798942    1.26835298129756    1.14064428578923
H         0.53026548821619   -0.01608022284675    0.46689302292382
H         0.61273263784049   -0.43960757883071   -1.14932787051095
H         0.96630350086184    1.28735286823095   -0.61563952436722
H         1.65834152522437   -2.56601398899983   -0.24296538860486
H         3.15140164016401   -3.28818277971584    0.01625817979939
H         6.28856308953633    2.04546609736471    1.70703160843167
H         5.87522371587654   -0.34626482165278    2.87109778919026
H         7.41523457497214    0.24674674332901    3.45772374856675
H         7.80288413206782   -1.98881577759570    2.04342389897159
H         7.71270438511004   -0.79134555711758   -0.44918817082796
H         5.94328568969353   -2.68899458432016    1.08643623581087
H         5.93560696991462   -2.67580012658963   -0.58356094979991
H         8.58941632509984    1.74360699294692    0.18270453129080
H         8.68674570557092    1.90060775921374    1.97460479075895
