30
 energy: -45.975663055567 gnorm: 0.115368358747 xtb: 6.4.1 (79825abcba525fcdf90b791dcacef51065a7a4e7)
C         1.07350662221691    0.09458978476078   -0.12551887023774
C         2.54993081944194   -0.00160365379814    0.04387445624574
C         3.35307325949633   -0.84183633336708   -0.70927727601352
N         2.89174711798869   -1.76840556233448   -1.57027700602805
C         4.69707729869180   -0.59824210092848   -0.37399376459528
C         4.89442056979857    0.40208640669816    0.53904444972604
S         3.44247684304297    0.95245022771510    1.18300495879678
N         6.20985779643970    0.67025531136169    0.81209381902665
C         6.65550094241144    0.37262211800579    2.20568079597687
C         6.91738709351499   -1.14750387374333    2.18675038220366
C         7.82991688927298   -1.10248746137015    0.96380922801805
C         6.96909673878048   -0.33809886257948   -0.05590794495216
C         5.94848127967498   -1.29378932613705   -0.75117924179318
C         8.83935775291445   -0.07962285405758    1.43118650843411
O        10.01435491342275   -0.17127716398970    1.10775516619577
C         8.09879826290008    0.88535058461587    2.32783209701675
H         0.72631716055755   -0.78233530926908   -0.68005130877377
H         0.76507273172470    1.02413004206532   -0.61423961421599
H         0.73533116217885    0.01274619249311    0.91316796663540
H         1.99002388853017   -2.20315167022663   -1.40172929669695
H         3.42409090215080   -2.44417622270065   -2.10987602728173
H         5.97198718210216    0.71033740535306    2.98860030143041
H         5.99609678807726   -1.72502300636295    2.05946443759124
H         7.46208893740751   -1.62849325930463    3.00695018420344
H         8.33731958678049   -2.01061543272384    0.64434701267061
H         7.48401622342984    0.29360737202484   -0.79068492592326
H         6.04409059840782   -2.33909419979595   -0.43933021901700
H         6.00507631791070   -1.29139223050732   -1.84514123427952
H         8.28660921462341    1.94273008811099    2.13289749052911
H         8.37728855143782    0.80708123896085    3.38206065455961
