30
 energy: -45.975709795709 gnorm: 0.124168994881 xtb: 6.4.1 (79825abcba525fcdf90b791dcacef51065a7a4e7)
C         1.21475127537926    0.25743175008637   -0.47583976941423
C         2.61204222523243   -0.06527404376994   -0.07432430736054
C         3.21482178661845   -1.31088453792811   -0.01620743619799
N         2.45868156164693   -2.42304352286808   -0.07966789306153
C         4.60779719180239   -1.18823547872883    0.13438068236765
C         5.01025532499303    0.11648577360147    0.03966969570001
S         3.75672622751813    1.23505794807146   -0.01678509894294
N         6.34314990704294    0.29370478597178    0.30202644597356
C         6.73158244632804    0.95106521110234    1.58509519942904
C         6.89095128179295   -0.16337193068331    2.63977864954748
C         7.78815546148739   -0.91035406971898    1.65623174295153
C         6.96606632349580   -1.10410180722099    0.37102528479328
C         5.74831615394010   -2.07851490733596    0.44852364736928
C         8.81847162116277    0.11101931604285    1.23325490817223
O         9.97539811349133   -0.19488604224506    0.98512253314294
C         8.15027748506751    1.46500095880651    1.29510725524938
H         0.44113297464652   -0.05887961302256    0.23020996056081
H         1.02198859750051   -0.09272976186296   -1.49478725957665
H         0.99030061217561    1.32841894635566   -0.52623514108602
H         1.56957051511324   -2.20904387926344   -0.52035256654251
H         2.87486567388868   -3.24232288373615   -0.51186587841907
H         5.98437331601985    1.73006390519504    1.75552164951877
H         5.96594777181321   -0.64906186252963    2.96685614008342
H         7.34447712561296    0.22055281772404    3.56048202191296
H         8.29546254821821   -1.82923941599461    1.94345858137529
H         7.62731744303899   -1.21814728102440   -0.49721007723576
H         5.66596460264633   -2.54443391116584    1.43604121165754
H         5.97703749377058   -2.77975206828276   -0.36136188992690
H         8.13015639884635    1.98738017930924    0.33696375908494
H         8.62263301444367    1.97774895841489    2.13715863436254
