30
 energy: -45.980502039228 gnorm: 0.112284358638 xtb: 6.4.1 (79825abcba525fcdf90b791dcacef51065a7a4e7)
C         1.15329626963814    0.20147105696635   -0.49128814026102
C         2.58638339155221   -0.06392298690988   -0.18534207919920
C         3.23993967326175   -1.27284881662951   -0.01321193395951
N         2.53145767013391   -2.41290250055594   -0.11811050684787
C         4.61566912093674   -1.14376811647186    0.24909836182956
C         4.99389451430998    0.17022878783230    0.18911550673489
S         3.72686713419713    1.23813678924281   -0.09362141545323
N         6.35299698215433    0.31368285040421    0.28454620533322
C         6.74932650235091    0.99656986187842    1.55177003239618
C         6.85415515042680   -0.14329378540223    2.58591101257922
C         7.80395257372745   -0.87538616833937    1.64132233458274
C         6.95195811347533   -1.09303424057319    0.37963333447699
C         5.74940881544919   -2.08904006978879    0.36382406962701
C         8.87905191687478    0.08876370467466    1.19607991694621
O         9.98595949862375   -0.25195865308889    0.80583569392503
C         8.21257412128634    1.43256437662766    1.37933522634172
H         0.44974194037681   -0.29925690026077    0.18052075520600
H         0.86800468110702    0.00790081556208   -1.53011622742219
H         1.00907352609211    1.28538430559983   -0.42599470046896
H         1.52385934821904   -2.29243439036456   -0.09071818735382
H         2.92317867689506   -3.18921890776631    0.40639923442589
H         6.09254533081989    1.85489022408951    1.71341864131936
H         5.95040433996696   -0.70246435937190    2.84872012475157
H         7.27518964947942    0.09370291308248    3.56944602401544
H         8.20477640779112   -1.81780299488704    2.00929080587381
H         7.63722675253529   -1.19004544025658   -0.47188752527418
H         5.69101197929151   -2.70269486602042    1.26884939062733
H         5.83832980897113   -2.74004581092104   -0.51267246225713
H         8.39640832204005    2.19545180642360    0.62069722021401
H         8.45080841460528    1.83086605580457    2.36912357516882
