30
 energy: -45.977004676628 gnorm: 0.122061346965 xtb: 6.4.1 (79825abcba525fcdf90b791dcacef51065a7a4e7)
C         1.08742855386725    0.09526277125407   -0.60536653930899
C         2.51334214795702   -0.06459231118140   -0.20662793782820
C         3.12782870240342   -1.27104053249643    0.08518577642854
N         2.54256323296213   -2.48135041005990    0.15789899107781
C         4.49083512843247   -1.06981876294094    0.36771600658061
C         4.93865962037617    0.20981256251671    0.18000035476704
S         3.66562268462184    1.23016216992233   -0.22495605788888
N         6.29430603937744    0.40668662289393    0.19757907478957
C         6.90724261141011    1.12027276119851    1.35704946216304
C         6.92711721954905    0.11097583111907    2.52351868901065
C         7.69114736980534   -0.90344603389199    1.67644821849815
C         6.89714384858366   -0.99191494061575    0.36234927356306
C         5.67235906177908   -1.92637532759886    0.61747350148590
C         8.93147071217350   -0.10595265680568    1.34589306959537
O        10.08714507656094   -0.47897275426090    1.20841781982527
C         8.40094791042291    1.27353924352521    1.03105491851959
H         0.67003131056716   -0.65288850630259   -1.28587633608135
H         1.09410062488783    1.09256550144732   -1.05632913471883
H         0.59151423947806    0.21688263254842    0.36376140117521
H         1.56015902903497   -2.53642122095209   -0.09183382165012
H         3.11435011418053   -3.28715314467303    0.39234451767765
H         6.26407281553236    1.98227686594659    1.55066548447862
H         6.00628790715249   -0.30776878651952    2.94212615557313
H         7.49661486601144    0.50247886382016    3.37391648368001
H         7.86347388265214   -1.87622874473724    2.13274569607381
H         7.49909970412209   -1.24636908175836   -0.51912352576226
H         5.69008788604891   -2.19148233585520    1.67976215981247
H         5.79315507550252   -2.83069048993751    0.01118643679903
H         8.53815523754438    1.55011792594256   -0.01584634238352
H         8.99511495927429    1.99889762007422    1.59310609741834
