30
 energy: -45.975477166830 gnorm: 0.117105110359 xtb: 6.4.1 (79825abcba525fcdf90b791dcacef51065a7a4e7)
C         1.10617896282961    0.20524454570687   -0.34726153232798
C         2.57071499518282   -0.06476017115262   -0.34454424740229
C         3.23735536011329   -1.27645316365075   -0.26933106039651
N         2.65153114381412   -2.47399178972132   -0.45743774172695
C         4.59565539227682   -1.13267448384589    0.06600277854241
C         4.95217296004900    0.17332613847925    0.26724362796525
S         3.67271682882355    1.22922089552606   -0.00442590132245
N         6.30017069702279    0.39743871250202    0.36482066865284
C         6.83510180562997    1.12193681988810    1.55571075738306
C         6.95523991523495    0.00481551014931    2.61275028531561
C         7.72090553518126   -0.94708453008718    1.69734619671831
C         6.86889836660631   -1.02390773914269    0.41933744937717
C         5.70819487492487   -2.06640191593297    0.35318869805265
C         8.86072341421051   -0.03266568672438    1.31222573568406
O        10.03950357773796   -0.29067476331197    1.11848540172644
C         8.32660634530834    1.38080602723272    1.29242475151526
H         0.61134537347838   -0.19918136341796    0.54078338758151
H         0.45930721473065   -0.28424648438085   -1.08209485140243
H         0.98429582538464    1.28957049541752   -0.44376597600454
H         1.64981186269602   -2.59948004220925   -0.35100242076506
H         3.08231358804412   -3.26975996285278    0.00343370393932
H         6.22578214213043    1.97989104304150    1.85041353759347
H         5.94834596965583   -0.33785194255575    2.87207534508054
H         7.61504295257971    0.13663703929949    3.47765585248207
H         7.88616549859406   -1.97673995469831    2.00832669211135
H         7.44531324503912   -1.23629999365062   -0.48990810241481
H         5.40784883366319   -2.51168267762149    1.30742689020701
H         5.77453090323490   -2.80596204417139   -0.45217577669115
H         8.53361390495313    1.86270301702092    0.33521681665177
H         8.82700107203903    2.03160200608319    2.01433229135804
