30
 energy: -45.977330970086 gnorm: 0.120986573155 xtb: 6.4.1 (79825abcba525fcdf90b791dcacef51065a7a4e7)
C         1.10087642127811    0.22470383435256   -0.41714010319491
C         2.55944422999567   -0.06018541176920   -0.32125596008226
C         3.21190502871213   -1.24701769028963   -0.03144509008959
N         2.68785798500597   -2.48677716650700   -0.06375639584751
C         4.59083433007987   -1.06262045981026    0.17507779856735
C         4.95673188956212    0.25612994294564    0.19109786444009
S         3.67117362700423    1.26451182287371   -0.20416410099546
N         6.30216485020900    0.41627453399574    0.39360589065079
C         6.76433684697459    1.01772142778010    1.67965670140994
C         6.86560700506423   -0.16250818358672    2.66785110212727
C         7.71310092721446   -0.97882279552912    1.69537658813554
C         6.92509251182034   -0.98310147794592    0.37471432718121
C         5.72534847107593   -1.98153070344780    0.42114365239327
C         8.82670729325940   -0.04112959678755    1.29006595203073
O         9.92789154334336   -0.33032012300401    0.84578140345720
C         8.24222168984107    1.34655622119950    1.41765927796078
H         0.69762042992240   -0.00067304208735    0.57464325985910
H         0.49171250522944   -0.29682506180908   -1.16209074727905
H         1.10990789198898    1.28959234965538   -0.67377651116419
H         1.82455296060872   -2.51254283160546   -0.59719603752880
H         3.33138564794618   -3.17871446714664   -0.43566754275492
H         6.18412706379004    1.91958738549636    1.88989473860669
H         5.90280889962429   -0.62475599806525    2.90837689128286
H         7.40451828615344    0.07176348609358    3.59276732567910
H         8.01587872943813   -1.95877672115220    2.05900541525495
H         7.64804414196453   -1.04721262390805   -0.44828188310404
H         5.74350248499363   -2.61585997773800    1.31352812672000
H         5.80549486125631   -2.65326199959266   -0.44043351327647
H         8.47130289762725    1.82197932808480    0.46224390297876
H         8.91178574398405    1.76138540340557    2.17573678856173
