30
 energy: -45.974086583079 gnorm: 0.118278608048 xtb: 6.4.1 (79825abcba525fcdf90b791dcacef51065a7a4e7)
C         1.08632547364387    0.13775280639778   -0.13242468591591
C         2.55547827539582   -0.05604332689974    0.01525341511397
C         3.26012063008122   -1.24813241652303   -0.01061282996282
N         2.84986575351917   -2.52797040992431   -0.09047860295556
C         4.64308193083027   -1.03342489919216    0.12873841315845
C         4.98527913951964    0.27913854910997   -0.05379524258316
S         3.64155631348252    1.28405429708438   -0.15518245879757
N         6.32463825384832    0.51845927496819    0.10648068141950
C         6.79140421954861    1.10337880369575    1.39848171560672
C         6.65310356453772    0.04161891497180    2.50900619400087
C         7.53743233652597   -0.92524965238025    1.72577572372434
C         6.93733520350979   -0.87059994976297    0.31084773351388
C         5.81784121091305   -1.93276575011162    0.07222802023096
C         8.84393586953341   -0.19681068432098    1.51109089965819
O        10.00036346108788   -0.58737037402013    1.57245072647018
C         8.31045203017060    1.17763488056574    1.17962477811455
H         0.51019524250808   -0.76541549458596    0.08984846863244
H         0.84504140475162    0.47833590414203   -1.14425949295985
H         0.79190849710216    0.98250154966299    0.49975375171335
H         1.85581771307490   -2.73335513503873   -0.10472308792663
H         3.53671485372295   -3.27588736101014   -0.09950866198213
H         6.29801344689661    2.06363418940146    1.56783568417820
H         5.61498449567275   -0.30271918760417    2.55639772909455
H         7.06380293952334    0.38575995937988    3.46486788295887
H         7.68694719994942   -1.93164999644086    2.11179861197953
H         7.69595445549534   -1.00362827813516   -0.47074829291576
H         5.88985337996963   -2.59762592181428    0.93930842686570
H         5.91189702868074   -2.45037229322614   -0.88860420281774
H         8.47100203410441    1.46524407350771    0.13903431296477
H         8.85347036171420    1.87349266805761    1.82460060262045
