30
 energy: -45.975706567958 gnorm: 0.130690329049 xtb: 6.4.1 (79825abcba525fcdf90b791dcacef51065a7a4e7)
C         1.15376607185660    0.21810973775502   -0.25798701709622
C         2.60856944035278   -0.04084916512334   -0.07288397482204
C         3.19878563005968   -1.29377129086682   -0.08274634569813
N         2.59872214475006   -2.46089375638789   -0.38344858418916
C         4.57450458404008   -1.12734062846946    0.15766627133338
C         4.96668501257898    0.17970432615530    0.26287204109787
S         3.73159411566370    1.27907577472144   -0.03988022692153
N         6.32967248521655    0.31438628276590    0.23170290233631
C         6.82547867664956    1.07137924982231    1.41930799228911
C         6.76960944834882   -0.01467139315727    2.51342790040206
C         7.69785332105427   -0.92104672733205    1.70895960551180
C         6.92722432097489   -1.08739539254198    0.38851140881323
C         5.71085896508084   -2.06367232407380    0.31274183323027
C         8.86150470657058   -0.04539014905500    1.30546810023053
O        10.05787187523303   -0.26879445127309    1.19401053851292
C         8.31790089078366    1.36029925794837    1.19543361736810
H         0.53286560583295   -0.59000006772753    0.14011538988244
H         0.93310048293213    0.23837529868095   -1.32986411988560
H         0.84315737304983    1.14881427452468    0.22908861351671
H         1.61336611852263   -2.44362157251557   -0.13994815958892
H         2.99578898524188   -3.36963601886524   -0.16493447846846
H         6.22892587382631    1.93049840267015    1.73592236039380
H         5.72462638875092   -0.33506881335964    2.57557115424952
H         7.10216691982066    0.39912782371344    3.47204896116741
H         7.90153511422405   -1.90903142169929    2.11713847151444
H         7.53879548105911   -1.24013893916084   -0.50967686639368
H         5.74937447658943   -2.66618366679673    1.22627884683862
H         5.99130123909288   -2.72017787652972   -0.51810964698756
H         8.45068864715389    1.80367014147839    0.20694308206078
H         8.75655369055209    1.91112893682884    2.03164601148932
