30
 energy: -45.977791225378 gnorm: 0.116415204073 xtb: 6.4.1 (79825abcba525fcdf90b791dcacef51065a7a4e7)
C         1.06409414212821   -0.11233240754156    0.22494750728703
C         2.54883267363663   -0.10272082841288    0.10990479063484
C         3.39145847662510   -0.96669288267488   -0.56965414194134
N         2.99259253697339   -1.95005779415089   -1.39825072693285
C         4.74339345742673   -0.62016800112065   -0.39560710682610
C         4.94319842987490    0.44654498487135    0.43832433832158
S         3.48176247218074    1.04230331288257    1.01711878789201
N         6.25051130022699    0.77897132531904    0.67763878242506
C         6.63456089908649    0.44958789616087    2.08237379154349
C         6.72672907410106   -1.08967211593271    2.12607033359237
C         7.74594802745288   -1.03522333425543    0.99092707076511
C         7.04692057925226   -0.24963808699531   -0.13127648464856
C         6.03049657888365   -1.16986711232763   -0.87858040502794
C         8.83885210113221   -0.19105621246665    1.60461016599158
O        10.00486801756086   -0.47919107519148    1.37875212101559
C         8.08237962212147    0.91227718906430    2.30744741603042
H         0.65080616235720   -0.81694659940992   -0.50289606271047
H         0.64073845728525    0.78376784243215   -0.23959401952296
H         0.62287206016451   -0.20207952937931    1.22354647983075
H         2.03637079219363   -1.89566503422486   -1.73470086086485
H         3.65319858418510   -2.12423598332704   -2.14957262457198
H         5.83981900500033    0.84627592316773    2.71895022362958
H         5.74395175466138   -1.50009549727468    1.87267878928130
H         7.02609043983206   -1.55710417126079    3.07088176933109
H         8.16060248584808   -1.95915669713745    0.59265726680475
H         7.63684469558967    0.31140080990746   -0.86701893116533
H         6.17682261622947   -2.20939727847269   -0.56710174152447
H         6.14126654055633   -1.15709526493078   -1.96831821304969
H         8.33839020596682    1.86704488769148    1.84462877965182
H         8.25430699880362    0.98785828627872    3.38439182377309
