30
 energy: -45.973176726542 gnorm: 0.123112844694 xtb: 6.4.1 (79825abcba525fcdf90b791dcacef51065a7a4e7)
C         1.07655034433521    0.20683156400038   -0.42432927049964
C         2.50470091594501   -0.07178598457367   -0.10725844968822
C         3.16453099044799   -1.28488339418047   -0.21349040832428
N         2.60038967178815   -2.48275833615928   -0.45744343089541
C         4.54099572394879   -1.11415139778562    0.01952348702693
C         4.94242868052119    0.17488486027013    0.24419522174933
S         3.64029111970392    1.22473893855496    0.07695211718951
N         6.29789840007016    0.35931266823744    0.31858510473379
C         6.85436885736610    1.16532362484316    1.44550789493256
C         6.92716132357725    0.08847406053768    2.54769754387061
C         7.71250773157909   -0.91436890871093    1.70635387142978
C         6.86140513582707   -1.06048840152695    0.43379823365488
C         5.65888436874615   -2.04630686262563    0.29059162401049
C         8.91117907571737   -0.07223545144387    1.33532470837347
O        10.07589271279099   -0.42047147774054    1.20962470757905
C         8.37423408560645    1.33992240042528    1.30252699061946
H         0.48573155229543   -0.50313461641638    0.16212238729785
H         0.81095842941490    0.19335556427782   -1.48607493601019
H         0.81666250186050    1.22619567405466   -0.11890090295248
H         1.65346543665232   -2.62269961425036   -0.11940760311541
H         3.31757715021251   -3.19542147285837   -0.36269981285413
H         6.27215140803333    2.07425217013491    1.61602878208461
H         5.95995574499726   -0.26556969592931    2.91873969222825
H         7.43145411791926    0.43680156710043    3.45606714368606
H         8.11939180507935   -1.80685457394197    2.17765495244030
H         7.55852391414834   -1.16799003970567   -0.40677351492859
H         5.55819684288194   -2.58475744686937    1.23874046569556
H         5.97161273747530   -2.75921435952731   -0.48007397700764
H         8.45174389466872    1.62476322620574    0.25172643784343
H         8.97167279135391    1.94148163793617    1.99265325675801
