30
 energy: -45.975302680958 gnorm: 0.131406377921 xtb: 6.4.1 (79825abcba525fcdf90b791dcacef51065a7a4e7)
C         1.08448595215808    0.16755122882101   -0.23458781260674
C         2.53949052204030   -0.13332668277311   -0.13354391037558
C         3.23721417179075   -1.32483324965942   -0.24198775375690
N         2.56783642523750   -2.49171389979677   -0.18725348308256
C         4.62539399657586   -1.12904445868761   -0.12918901277750
C         5.01230990893632    0.17244144975693    0.04306303301039
S         3.65654558852495    1.15953102431546    0.15831638305880
N         6.35837580631525    0.36722082817457    0.20741999829227
C         6.86016690553542    1.15476267332476    1.37243138605034
C         6.74587676633743    0.07972978502229    2.47287120731160
C         7.65812004692928   -0.91144463427446    1.75474333532252
C         6.99682921604491   -1.01572065258656    0.37020538847160
C         5.77834679526443   -1.98304784754857    0.23611196319131
C         8.86574241035117   -0.06379100278475    1.42794686337573
O        10.05200683366180   -0.35108339822101    1.36576591163205
C         8.37504959924315    1.34758423831097    1.20252303892155
H         0.63942947434249    0.00183244470178    0.75106242247784
H         0.60389116024138   -0.28424723471828   -1.10804720861638
H         0.93438850272172    1.24929486930338   -0.31963377686570
H         1.55900657197611   -2.39063546113964   -0.23787718300690
H         2.97071751857498   -3.18832829976859   -0.80663880748714
H         6.23932523015370    2.05213525707279    1.43145415248248
H         5.75298312200963   -0.34191107857013    2.65965204249567
H         7.05076942656119    0.57390758121123    3.40217598744483
H         7.87836335465160   -1.88389355980466    2.19068598068357
H         7.70166363984629   -1.26233395374421   -0.43383588617143
H         5.61139537597188   -2.50029760935415    1.18670816482790
H         6.09843894568399   -2.64230094391226   -0.57806735275472
H         8.72342100009123    1.59321793161891    0.19772190209652
H         8.73185621236515    2.01481416636804    1.99155665492231
