30
 energy: -45.978064105218 gnorm: 0.114739525990 xtb: 6.4.1 (79825abcba525fcdf90b791dcacef51065a7a4e7)
C         1.14781575379971    0.33126686445048   -0.44298165048349
C         2.57028635407161   -0.08184971382152   -0.28907331532549
C         3.20492896101254   -1.30806444536897   -0.18002074293374
N         2.49039530520268   -2.44868082261615   -0.14672196984673
C         4.58206928676520   -1.17800374356793    0.07427982108538
C         5.02983038101367    0.11428954096205    0.12651319913925
S         3.72447505116355    1.16961643815850    0.03674323831273
N         6.36245620872699    0.36065139453599    0.32716176444359
C         6.77840441391898    1.07922449856002    1.56809196994573
C         6.91214013591057   -0.06946692189448    2.58904668145601
C         7.78973208603823   -0.94805783281761    1.70122206335730
C         6.91046806279041   -1.06499570226062    0.44490017445075
C         5.71629235925025   -2.07035497049427    0.40490658591513
C         8.85729583806787    0.00911469271935    1.22394564874462
O        10.04465427476620   -0.18992494716770    1.01373186020727
C         8.25700079399095    1.39417869348765    1.29336451805714
H         0.50568651394674   -0.04855624986374    0.35729880763010
H         0.76453630792859   -0.10439854981329   -1.37105332508008
H         1.08623373910398    1.41865910808767   -0.56010180813695
H         1.55042159668982   -2.44129051783869   -0.53001311201003
H         2.82071045202363   -3.40762847227852   -0.19706382216192
H         6.14731073900513    1.91166690276820    1.88897519470828
H         5.94306853412190   -0.53849297511397    2.78759309529289
H         7.35479858113669    0.20356717829610    3.55355924413695
H         8.21573853212488   -1.84388226735532    2.14868950124889
H         7.44697574706461   -1.23624005489972   -0.49686780591925
H         5.60932872985157   -2.63442210980822    1.33734439980998
H         5.78510760176825   -2.70730076205977   -0.48364622621605
H         8.44455534278031    2.05807084992830    0.44755463188231
H         8.63128245055243    1.96951354505725    2.14423691271254
