30
 energy: -45.976413869601 gnorm: 0.118444145824 xtb: 6.4.1 (79825abcba525fcdf90b791dcacef51065a7a4e7)
C         1.21626944896905    0.28861636644665   -0.40712101052827
C         2.58416033025042   -0.13900491321264   -0.00241091821552
C         3.23153084959905   -1.33776805971722   -0.25169908698770
N         2.64574622723387   -2.54012071447660   -0.40622203393249
C         4.59434070199942   -1.12552545770286    0.02362330616654
C         4.96424073514614    0.17899467422973    0.20974547978416
S         3.65198559730498    1.22303950594931    0.09277154060051
N         6.31405264917712    0.39646278464083    0.29669972300566
C         6.85046367769023    1.16365636949509    1.45986145356731
C         6.81674285068715    0.06735338586283    2.54462337321650
C         7.68660754788766   -0.90968699717636    1.75782627640288
C         6.87094633464376   -1.02136195710075    0.45884595760166
C         5.71253855183153   -2.05616392303452    0.29860033381265
C         8.84118096974456   -0.04302979266080    1.31113858807905
O         9.96284237195762   -0.42226676973578    1.00834874613936
C         8.35770310936142    1.38787116203849    1.26269248494724
H         0.43134122905406   -0.36752387970380   -0.01929110250153
H         1.06452117211861    0.24234429079067   -1.49010571812158
H         0.89220375464841    1.26585836086304   -0.03307438573809
H         1.65514309745215   -2.53881962098317   -0.18436390100323
H         3.17736115013030   -3.33787535743728   -0.07126519038714
H         6.21146862439164    2.01483164077441    1.70763475508433
H         5.85591874677715   -0.42450043729430    2.72738755361134
H         7.41723149815675    0.26861469615633    3.43887494417915
H         7.85456159684666   -1.88295541656425    2.21471799204430
H         7.52051514855136   -1.15663531997139   -0.41514118594922
H         5.52155466318905   -2.52626723981780    1.26895143135181
H         5.87713329826979   -2.77732519677727   -0.50935794369086
H         8.71945355110006    1.88832246855882    0.36268749722061
H         8.72987475726150    1.88640076356426    2.16160142583496
