30
 energy: -45.976877613338 gnorm: 0.113154012831 xtb: 6.4.1 (79825abcba525fcdf90b791dcacef51065a7a4e7)
C         1.13468808562925   -0.31539897971970    0.36069390248782
C         2.54728863320942    0.02008594957051    0.02935529727542
C         3.39740397385954   -0.58327240109264   -0.88252677990759
N         3.14527366388145   -1.34241626016452   -1.96548744973493
C         4.72254992351297   -0.26795837848152   -0.53229064290590
C         4.86686571561404    0.42703824457257    0.63791999815613
S         3.38190110548328    0.82430694028296    1.31820212689956
N         6.18159808093691    0.64438266202247    0.95586001267215
C         6.60516111317099    0.07856841594477    2.27104691787830
C         6.72290709376831   -1.42229978073017    1.93451120115098
C         7.78828644089684   -1.13363055908409    0.88001648698318
C         7.04135820447162   -0.14784198405729   -0.03400948791426
C         6.02424384611807   -0.72796643098140   -1.06712922151622
C         8.81486433371834   -0.27116846166835    1.57712576762951
O        10.01527187281699   -0.34131457086155    1.35865852059513
C         8.00210097595330    0.70658454293220    2.39382044403971
H         0.41585631372085    0.10456833328645   -0.34920237093852
H         0.88478568295947    0.15087754785550    1.31890030655455
H         0.95972935170132   -1.39509638624346    0.42047956604296
H         2.27727158430670   -1.86772298063133   -1.99928888206674
H         3.99565100258105   -1.83977523827832   -2.21189242450784
H         5.91188679628844    0.40382106760952    3.05065390979243
H         5.79683221821709   -1.77062315838898    1.46593672832955
H         7.07027985873559   -2.04893596687657    2.76362992384160
H         8.22340483455977   -1.98291449965868    0.35694976795012
H         7.67153285531999    0.65725575635771   -0.43249361490513
H         6.10140760231174   -1.81682578218560   -1.15364113625883
H         6.11843731935475   -0.41337988690795   -2.11217682366099
H         8.01423105055440    1.64320042621863    1.83352818464269
H         8.33412456237852    0.81431161182467    3.42979148624609
