30
 energy: -45.969707820285 gnorm: 0.131833213466 xtb: 6.4.1 (79825abcba525fcdf90b791dcacef51065a7a4e7)
C         1.10661913606468    0.06078592479436   -0.11699007153625
C         2.59221812971732   -0.03244445645480   -0.07138905727454
C         3.21442832866539   -1.26686198080213   -0.15702872616139
N         2.65642787807645   -2.46079216196650   -0.43241777056549
C         4.59623469655978   -1.06609344716558    0.01150384467334
C         5.01758023855537    0.22768908028311    0.15927052343925
S         3.72366221508216    1.28048399402854   -0.04839528076276
N         6.37955242087609    0.37075080740416    0.19683039590063
C         6.81498850727477    1.15539950170315    1.39014084643865
C         6.72149455082901    0.06962173425335    2.48196100823840
C         7.65113419232583   -0.89889259681612    1.75527517309267
C         6.97117989808465   -1.03006928257431    0.38211122802073
C         5.73805016015233   -1.97857989686973    0.24749684083138
C         8.90148679690584   -0.12858923927124    1.39902316788676
O        10.08785074518233   -0.42101171825858    1.37340381158605
C         8.33325071780346    1.25367249357520    1.17533662805879
H         0.57427143648748   -0.75948728259778    0.37372590848446
H         0.67774020326601    0.24718692730770   -1.10660719912179
H         0.68172152237537    0.93711801292690    0.38444334313727
H         1.64531692077441   -2.47918611311436   -0.52092534241863
H         3.09474620647770   -3.26389909827645    0.00817193085514
H         6.29939747683279    2.11602131322434    1.46482183765481
H         5.69782962901660   -0.21876320785509    2.74167265792583
H         7.04536560721148    0.49890207484250    3.43674084216993
H         7.70437836115500   -1.84747480876322    2.28590391869324
H         7.72099518948966   -1.33329585308847   -0.35945652736843
H         5.44132345482231   -2.60810043744114    1.09290229645524
H         5.87599445436030   -2.57709898191421   -0.65953560936238
H         8.58579883001229    1.59628658552880    0.17027001207636
H         8.74641351382209    1.85818251178422    1.98709085453133
