30
 energy: -45.977707465788 gnorm: 0.124793457658 xtb: 6.4.1 (79825abcba525fcdf90b791dcacef51065a7a4e7)
C         1.11376638016323    0.22151265593070   -0.09076923473849
C         2.56151414189307   -0.12728597259780   -0.10267019255121
C         3.22583110980242   -1.33752064537137   -0.21349113561259
N         2.59401918619635   -2.52420500702119   -0.28606385513510
C         4.59513027111829   -1.15064486686350    0.04765499263126
C         4.98776764258610    0.16037550413076    0.06502599239625
S         3.66716839553287    1.20011387634473    0.03880003711956
N         6.33658980100942    0.39392606817921    0.11960194692355
C         6.81929567911580    1.19556953620305    1.28305833982527
C         6.72029575500572    0.17316761975572    2.43397931159987
C         7.61421364766769   -0.90582574430482    1.82816886752424
C         6.95587699110660   -0.97011544022896    0.43979425613184
C         5.79706885593383   -1.99564428178100    0.23037442670884
C         8.84681617433940   -0.10567874711257    1.47586192849071
O        10.01134058362777   -0.46140020687939    1.37111548952834
C         8.34733203793168    1.28207998721039    1.14689886145612
H         0.58247477562105   -0.54059603824629    0.48712689728605
H         0.66142691151080    0.38297591866130   -1.07430527682678
H         1.05569749126489    1.22182992305265    0.35186462331442
H         1.72626774993014   -2.59625472157157   -0.80791974857358
H         3.14866782508539   -3.35097137732281   -0.48617693224999
H         6.27010526018731    2.12458414499354    1.45489363273390
H         5.70325340666796   -0.18916655279437    2.61521036915474
H         7.13962851344203    0.47258550088715    3.40108198081259
H         7.89728241953908   -1.83942956153000    2.31031614940009
H         7.72672030058070   -1.02716047687049   -0.33907576605336
H         5.68261408127543   -2.66182495189872    1.09185957178307
H         6.17755365428230   -2.68143554722623   -0.53440217939925
H         8.72265440951371    1.70804818777610    0.21469283381455
H         8.64628498195311    1.86666193093836    2.02095370533026
