30
 energy: -45.972267627412 gnorm: 0.116782604639 xtb: 6.4.1 (79825abcba525fcdf90b791dcacef51065a7a4e7)
C         1.02344788309274    0.04983994989947    0.03897080580190
C         2.51244717088050    0.06866899827949    0.05635701472361
C         3.32602784248445   -0.61272845138436   -0.83361505391322
N         3.03204015417717   -1.34273306242044   -1.92601488038774
C         4.67045138479832   -0.42762432190164   -0.46434302380867
C         4.80792946071383    0.29391856528420    0.69052316326581
S         3.36038842612964    0.79834008121512    1.38038543401977
N         6.11835967923971    0.38443357620613    1.07965720377568
C         6.65402087443548   -0.11405844900793    2.38113359346863
C         7.10353233630995   -1.52938979557879    1.96339877877218
C         7.99691333768697   -1.07287760970082    0.81283840067274
C         6.98938363124511   -0.25105764553931   -0.00851427413985
C         5.95347091026934   -1.05223444758545   -0.85904524227843
C         8.85878185073249   -0.02828722789832    1.48341873739247
O         9.99872459000615    0.23335439257373    1.12887552680837
C         7.98744776681296    0.63589096848577    2.52419712258194
H         0.58358542067449    0.01776220777715   -0.96229659374511
H         0.72989699854739    0.93424713708026    0.61314527696540
H         0.69658163142397   -0.94088757113331    0.37296002270392
H         2.05007316297572   -1.57858255238495   -2.02913197146120
H         3.67338578274644   -1.40411165053365   -2.71095528747785
H         5.95633449361745   -0.10325757536644    3.22215837777227
H         6.14790758595179   -1.98932409511791    1.69183356834321
H         7.69176425362912   -2.17108550116526    2.62897254398904
H         8.50145141615869   -1.84479634056360    0.23509034243679
H         7.49618244944669    0.48853082561127   -0.64117208809917
H         6.04555127422752   -2.11341789989604   -0.60514738599496
H         6.17712223610437   -1.01754556719142   -1.93083736680664
H         7.74897972503108    1.65113322047533    2.20211012994156
H         8.48421013392472    0.74014777621342    3.49241117643584
