30
 energy: -45.977486992696 gnorm: 0.118285823153 xtb: 6.4.1 (79825abcba525fcdf90b791dcacef51065a7a4e7)
C         1.05882673450504    0.14652809046827   -0.07280970331633
C         2.53354053318192   -0.05540341123725   -0.02570798856807
C         3.23064370662545   -1.25136319071634   -0.07035814187384
N         2.61075786414398   -2.43837404870497   -0.20971247219579
C         4.62762150706533   -1.13233498088518    0.04093131954042
C         5.02878504289402    0.17615929664240    0.02865112240639
S         3.71039983407133    1.21715739357243   -0.03387448905114
N         6.36200831323189    0.45236138781311    0.18055151120233
C         6.89740211720464    1.19870182761616    1.35766553210662
C         6.64009999582319    0.14349750427613    2.45314040625221
C         7.55544991471015   -0.87907825433534    1.78471276181927
C         6.93120857086827   -0.95560291389953    0.38129155041586
C         5.81764229614903   -2.01165735625379    0.09298351723521
C         8.84494297680603   -0.12777411752850    1.54719618909803
O         9.97165437288518   -0.56854836529540    1.37437788668194
C         8.42730055170423    1.29414612453615    1.25174223878977
H         0.63420035420535   -0.78711713583237    0.30803592617774
H         0.57367770400729    0.17791184417188   -1.05345744925656
H         0.82224972556030    1.05640431410916    0.48940728706873
H         1.74866865199145   -2.46529059545127   -0.74505813226896
H         3.24428994203470   -3.20636754995072   -0.40982761007444
H         6.31535291907107    2.12135223154217    1.42201294380951
H         5.62397425534497   -0.24584673264808    2.33311778114440
H         6.90440421083856    0.48303131877889    3.46092940861813
H         7.73221474805467   -1.85955767741086    2.22246190370207
H         7.74991682977406   -1.11213698882408   -0.33236517577183
H         5.75392188431465   -2.67499582715066    0.96187649661291
H         5.95006313433474   -2.69621312558793   -0.75188908493117
H         8.83606933338212    1.55907860041514    0.27499112671239
H         8.89050574780638    2.00860138858354    1.93736269202253
