30
 energy: -45.979386052513 gnorm: 0.112635731993 xtb: 6.4.1 (79825abcba525fcdf90b791dcacef51065a7a4e7)
C         1.07907484297318    0.12260994491001   -0.04741666385933
C         2.56354945798136    0.00498108380428   -0.06397775060380
C         3.30038928104249   -1.04137185711939   -0.59358032405582
N         2.84083049730939   -2.12026226292293   -1.25499857364446
C         4.64782209891139   -0.89483896651874   -0.21801014452661
C         4.89880929407010    0.30730216209075    0.38622690143037
S         3.51411834592347    1.16039282493604    0.81118967425721
N         6.23729098469377    0.58932422328105    0.46222647285390
C         6.72696379467891    0.78885389537157    1.85853461882041
C         6.82486895142019   -0.63817496323163    2.43622741235625
C         7.74807837030710   -1.07475430490699    1.30158869427620
C         6.96143011603671   -0.69180584716677    0.03681227901619
C         5.86634940934969   -1.71609199602114   -0.39912176276153
C         8.90638545576831   -0.11570501208728    1.45063076276717
O        10.11787405878705   -0.26848410328677    1.39983126669236
C         8.20568050531793    1.19050782188034    1.74456274874406
H         0.68221835790478    0.50516837772708    0.89767505158580
H         0.70904464604036   -0.90745494850091   -0.05569224400207
H         0.74890184259087    0.62786368705627   -0.96154784465675
H         1.83787868028771   -2.27633541422929   -1.23931052942310
H         3.46020662757329   -2.92499587530177   -1.25508972597425
H         6.13379428287153    1.55752256238911    2.36003639962818
H         5.88378704652401   -1.19726633096817    2.45318553639488
H         7.16642194797626   -0.67995370215573    3.47659979313947
H         8.07893857326124   -2.09630489592385    1.12502161627071
H         7.56316816809476   -0.45982777972465   -0.85098811920682
H         5.83606701254847   -2.52765456238363    0.33538651324288
H         6.08951774625726   -2.17145260840271   -1.37010281545657
H         8.35534274336537    1.87548524462168    0.90806348844965
H         8.44569795737229    1.60909679443776    2.72550906598043
