30
 energy: -45.976504251996 gnorm: 0.108124044302 xtb: 6.4.1 (79825abcba525fcdf90b791dcacef51065a7a4e7)
C         1.19784288650927    0.18325770871480   -0.62174725272194
C         2.57433439535499   -0.05373257426505   -0.10514061116674
C         3.17840634967081   -1.29832967287735   -0.03925124077148
N         2.58429783732630   -2.50340310402960   -0.12588831121173
C         4.55529841218511   -1.10564509866689    0.17321275061361
C         4.97427503148899    0.19680479991470    0.13683791771728
S         3.68016776419365    1.26814603705377    0.07991347586445
N         6.30720948413631    0.41694641154666    0.36414616318189
C         6.81295974108357    1.09768875548987    1.59299706547018
C         6.83443150125392   -0.11191031901032    2.55014637005891
C         7.78969656195050   -0.91154653892180    1.66789201246430
C         6.92237033980673   -0.98552863096273    0.40006069444465
C         5.72516795908153   -1.98797084976073    0.38528176693681
C         8.92282154282120    0.01622900565682    1.29516597102241
O         9.98183268012451   -0.40987362394887    0.85863575065232
C         8.29221392935298    1.38951184925444    1.29708338764367
H         0.51237636772820   -0.35735407685371    0.03773657378939
H         1.03592706059207   -0.15046835816968   -1.65152135477500
H         0.87846327500066    1.22998505360960   -0.57389437600814
H         1.57745265432866   -2.59705487564531   -0.21538366508658
H         3.21090628843917   -3.26213490304697    0.12493212385613
H         6.26805005277871    2.00879140676558    1.85217079019549
H         5.87102418151916   -0.60294316521746    2.72114042766262
H         7.35140072785755    0.17419339558352    3.47300393530722
H         8.22102837906908   -1.87580208930545    1.92937645517950
H         7.39164413265320   -1.23211767111937   -0.56070358837672
H         5.65230737096960   -2.51131520453244    1.34437261476933
H         5.83268723976790   -2.71779623424771   -0.42450592221122
H         8.30083072774939    1.83283015287008    0.29972763368067
H         8.60202337999670    2.07963725733047    2.08627652523137
