30
 energy: -45.971361357656 gnorm: 0.121220925396 xtb: 6.4.1 (79825abcba525fcdf90b791dcacef51065a7a4e7)
C         1.03236175322726    0.09836368827554   -0.02308762282489
C         2.51778514111414    0.03780282775475    0.06423619989260
C         3.24778094024757   -1.00866133831641   -0.47454498952523
N         2.83452062608802   -2.08501099087228   -1.16978611138346
C         4.62571389878162   -0.76040434741701   -0.34124357251718
C         4.95369628477442    0.43685492495041    0.23515737882101
S         3.56528927636842    1.27922858942187    0.66927561729616
N         6.25604474079918    0.56985421221659    0.63894607258878
C         6.71146296119644    0.55499836264542    2.06079049150132
C         6.97158509148665   -0.91588608078159    2.44622684624261
C         7.78402506203464   -1.14953000822333    1.17513519548187
C         6.96831504898838   -0.61808096860867   -0.01537035810120
C         5.85189174921863   -1.55760645879253   -0.57151173517975
C         8.82904160688773   -0.09971065846315    1.47427419341896
O        10.00953678917729   -0.29760875123959    1.22750680716073
C         8.13100873179275    1.13845285718796    1.98737907682011
H         0.68069758667148   -0.88834558858709   -0.33896970279609
H         0.67095136100650    0.91533333217411   -0.65551758438215
H         0.48057649280566    0.26801723591073    0.90786998955375
H         1.99861758736972   -2.62846016606467   -0.97887671146456
H         3.65127635542590   -2.64231072529183   -1.40119498026856
H         5.89161650937866    0.99137028025676    2.63666979585770
H         6.04358078339311   -1.44994806205840    2.67446289363647
H         7.56731428213694   -1.05747432268208    3.35498319722652
H         8.21722527164259   -2.14318955823204    1.07927959626494
H         7.54120972246736   -0.13994995282677   -0.81990406293063
H         5.86180888800480   -2.47062000536759    0.03293937590637
H         5.97169104265512   -1.85205040091852   -1.61980200299003
H         8.18149091405398    1.94502208416820    1.25374326814794
H         8.52697212050071    1.45010431941952    2.95751677054990
