30
 energy: -45.978129714572 gnorm: 0.120627629557 xtb: 6.4.1 (79825abcba525fcdf90b791dcacef51065a7a4e7)
C         1.13231167598970    0.20409271155325   -0.25653007636534
C         2.57178040906017   -0.10223751133094   -0.02878622578448
C         3.20237875784956   -1.33467466235589   -0.07014652824392
N         2.56180420309818   -2.51110224494783   -0.20562812362121
C         4.59224463506126   -1.17628888119895    0.07575360880942
C         4.94586152549906    0.14015484534383    0.19892540147736
S         3.67563530623862    1.23160032085932    0.05401788229300
N         6.28230649487001    0.42912410976467    0.28411479232838
C         6.83782086582943    1.11058141697982    1.49088225948178
C         6.82234426880001    0.00984364871598    2.57155917198627
C         7.65998003590284   -0.90579837228031    1.68257762780510
C         6.92419209386276   -0.96091841305040    0.33324361905106
C         5.80047870039001   -2.02904592186312    0.14676520321997
C         8.88969648903230   -0.08331388656582    1.37438758337912
O        10.07043491122870   -0.36576584093862    1.51475975340281
C         8.30619724674988    1.27701323679549    1.07006183833830
H         0.59146418127356    0.21688144213439    0.69445089478840
H         0.60645466684339   -0.50972745322903   -0.89837094830515
H         1.12612988819400    1.19457691902687   -0.72432723936576
H         1.66933407266750   -2.34603255116410   -0.66034379803719
H         3.20517729077735   -3.07329169754991   -0.75447879807154
H         6.31763525016527    2.06365791330083    1.61440450133184
H         5.79149753368643   -0.33749188973109    2.69492415827134
H         7.22763956102456    0.46262933972414    3.48342508741298
H         7.89238831236596   -1.87045577000503    2.12938017629542
H         7.66630839904998   -1.16970426937714   -0.44763019439143
H         5.76301968791850   -2.82713699896076    0.89556470716165
H         5.91470325370607   -2.49879384089904   -0.83621558670826
H         8.30927778914502    1.67166733684919    0.05243591527353
H         8.75684645434963    1.98153346554319    1.77408408316405
