30
 energy: -45.974286487422 gnorm: 0.117364327982 xtb: 6.4.1 (79825abcba525fcdf90b791dcacef51065a7a4e7)
C         1.21264692671784    0.27978611815197   -0.44094509111972
C         2.65656303039759   -0.03865195573398   -0.26352140023763
C         3.17901786833285   -1.29387588390616    0.00052424720949
N         2.51015280275268   -2.46209021977425   -0.02330157123187
C         4.56238992830002   -1.14044741316203    0.20261701370155
C         5.01220266716880    0.14778664028915    0.09602535767240
S         3.77606145795389    1.27252907769766   -0.08462734534771
N         6.35502505303573    0.36670089074355    0.25649401471237
C         6.66438851626054    1.04276071912904    1.55129335738746
C         6.83788097414364   -0.12276756784308    2.54686852961787
C         7.73839388003769   -0.92355111724517    1.60977494595732
C         6.92998661678409   -1.05225361231094    0.30783879569214
C         5.73041922567675   -2.04956263443473    0.23844753532091
C         8.83348996551522    0.06151486810401    1.27202659009211
O        10.00832841025697   -0.23366889227987    1.11001471296186
C         8.14550629774504    1.40410080992150    1.35987228648143
H         0.62929568692673   -0.31702768499251    0.26655684129631
H         0.83525986530614   -0.02206311219556   -1.42302989850988
H         1.07328630029583    1.36519174361077   -0.39190826814066
H         1.50672186180158   -2.49975518864823   -0.17238205739705
H         2.92942354651193   -3.29878134272344    0.37088492981187
H         5.93482350659634    1.76953420790938    1.91699927258936
H         5.97080080162927   -0.74749576834400    2.78433965672349
H         7.40170798921423   -0.01842173095899    3.48067238769511
H         8.16058172993051   -1.87794118114477    1.91816924163836
H         7.60454698162031   -1.17466172946801   -0.54894391930384
H         5.83163027177902   -2.59843223371398    1.18054716785513
H         5.90958910718241   -2.76731200940338   -0.56944823949027
H         8.33737970387148    2.01178351657206    0.47374013451647
H         8.63013157479667    1.82745870515085    2.24360709682867
