30
 energy: -45.974756872988 gnorm: 0.120266231503 xtb: 6.4.1 (79825abcba525fcdf90b791dcacef51065a7a4e7)
C         1.11334686261088    0.09695731131499   -0.06372180584053
C         2.59847542892145   -0.00299732434004   -0.01705374783085
C         3.25811941829979   -1.22071602562832   -0.03429450328792
N         2.58102992781554   -2.38279272015127   -0.09594235086551
C         4.65787181463895   -1.08928378200302    0.00467781550197
C         5.02706490038800    0.22863309876538   -0.00096339647670
S         3.73762600593258    1.29646776210092   -0.15196842923688
N         6.37980359302854    0.43634207375050    0.06068574479435
C         6.76286317308573    1.07770967338766    1.35342738284726
C         6.65485606734610   -0.06860510788840    2.38008342632807
C         7.62981670965058   -0.96923999937598    1.62600736268767
C         7.03164268333328   -0.94192377578614    0.20947425915018
C         5.84518728112967   -1.95667689583345    0.17781916999331
C         8.84735948187352   -0.07693981075191    1.55491336541480
O        10.02229380133043   -0.41233502416186    1.52910505687150
C         8.28216920909146    1.30298865194905    1.31010160231927
H         0.68658459061992   -0.44437465788498    0.78591225169492
H         0.70983235638243   -0.36628430381117   -0.96959584326265
H         0.68720414481690    1.10086671261883    0.03874609481243
H         1.70205973838774   -2.67722979212503    0.31786378377517
H         3.14364565892290   -3.17005638810167   -0.40400474794275
H         6.17022996142942    1.97836205568039    1.53179998703812
H         5.60697549467896   -0.35073196320568    2.52450167133868
H         7.03891775225233    0.10323906040235    3.39188617687378
H         7.76720634061359   -1.96909746661555    2.03297069188052
H         7.77332666907921   -1.07182562066475   -0.58872523523435
H         5.67547323176189   -2.67397111144345    0.98759653663651
H         5.94343543282593   -2.61217510183719   -0.69432244101999
H         8.41683026321211    1.63202509734476    0.27814943068736
H         8.73253483185317    1.97915966420656    2.04156886112012
