30
 energy: -45.974457030606 gnorm: 0.126018855505 xtb: 6.4.1 (79825abcba525fcdf90b791dcacef51065a7a4e7)
C         1.13925687329948    0.32989453216316   -0.21089657630252
C         2.57044938491517   -0.07769200346479   -0.15313061292921
C         3.24510222998287   -1.24109239590781   -0.48420363501434
N         2.69776754150723   -2.39128437797208   -0.92027247050331
C         4.59164586865501   -1.07067058617339   -0.11558907998136
C         4.94328903196296    0.17174433797760    0.33827490039245
S         3.62143518135330    1.21021839234358    0.33798157258243
N         6.26703237475191    0.48638493955652    0.49812004248936
C         6.74899460302584    0.91757037990088    1.84387615654412
C         6.92960992166860   -0.34191520433221    2.71611460895596
C         7.72345338191245   -1.05477219200077    1.62434098386243
C         6.96699702803024   -0.86164658617420    0.29935016882815
C         5.81469084839245   -1.88713239421086    0.05650930542330
C         8.83513390009722   -0.06586582805924    1.35996433665789
O         9.95658083716904   -0.23638787002544    0.90509548512606
C         8.19026454509566    1.29638295611234    1.46949592613516
H         0.99440589778832    1.40861176946879   -0.32239406866032
H         0.69332439470902   -0.02627713956389    0.72307905633846
H         0.68139653135033   -0.09575768153834   -1.11040503463192
H         1.69776843902756   -2.48737144338897   -0.77437401031197
H         3.20966861051071   -3.22299766819544   -0.64200410680373
H         6.04332605844342    1.71564394202644    2.08742516284035
H         5.98144923835714   -0.84820033519020    2.92389471424436
H         7.50612374445390   -0.13056767736496    3.62371729615962
H         7.94450792747745   -2.11851267111854    1.68599401637829
H         7.67065440621804   -0.75809696984180   -0.53625489740820
H         5.78043600685697   -2.48525622651912    0.97309411789637
H         6.14760089391889   -2.51567315236694   -0.77659873867074
H         8.23786872812437    1.67380360850840    0.44645567322132
H         8.67576993375124    1.98670297396136    2.16435099917549
