30
 energy: -45.977752065108 gnorm: 0.117646717217 xtb: 6.4.1 (79825abcba525fcdf90b791dcacef51065a7a4e7)
C         1.16673498433831    0.18632121537473   -0.15927401112188
C         2.63114732443736   -0.07605782919500   -0.09272013562667
C         3.28897389409800   -1.29481408399440   -0.07992737532587
N         2.59440906834756   -2.41701087544914    0.18639372994422
C         4.68441513413385   -1.12248555124062   -0.11378965621140
C         5.03220511873887    0.20106914693732   -0.09175906079023
S         3.73048385033746    1.26146394838558   -0.00923239104496
N         6.36564688562030    0.41659198064997    0.13699532139241
C         6.70520266668039    1.10617353313312    1.41701373655643
C         6.69282357231597   -0.05810517826196    2.42895621821906
C         7.61496088325485   -0.91441249979686    1.56482502283025
C         6.96093231135311   -0.99437308775281    0.17522892924313
C         5.81892870548188   -2.05471262452494    0.07567903488835
C         8.84212182736337   -0.04728981071876    1.40408098965027
O        10.02028231562679   -0.36842974165254    1.45341335082263
C         8.22355113031194    1.33013431226602    1.34367830289689
H         0.76258930292818   -0.32012140622108    0.72233049453904
H         0.68702310495767   -0.24500875556765   -1.04349993787272
H         1.07765224023172    1.27544829908254   -0.23541744273199
H         1.62430302850185   -2.46966585873638   -0.10795132647479
H         3.04800231378478   -3.30845797370822    0.01089950383583
H         6.04238629447947    1.96995713810539    1.51059773931999
H         5.71142707714306   -0.48486820700383    2.65969443294421
H         7.07369596001897    0.24554993677868    3.41054085430985
H         7.74556873679013   -1.90100417516819    2.00503914163571
H         7.68782580534875   -1.09839115355582   -0.64018393786768
H         5.60138170780299   -2.67855645292958    0.94891749537508
H         6.05404734111974   -2.60903436582035   -0.83942107937671
H         8.50393912567470    1.88910751089653    0.44910834872300
H         8.64288776173398    1.84260717534087    2.21351112381631
