30
 energy: -45.977297653564 gnorm: 0.110918288243 xtb: 6.4.1 (79825abcba525fcdf90b791dcacef51065a7a4e7)
C         1.17202263046360    0.29564494545854   -0.17168369869524
C         2.60435386089622   -0.04787048295279    0.04786150047924
C         3.21570841414126   -1.28733343829971   -0.04293207909586
N         2.51632120382687   -2.43742440917474   -0.07158809609289
C         4.61908128655758   -1.22704756374922    0.02785103653936
C         5.02939463134296    0.07863346522989    0.03681039148681
S         3.79088871204498    1.21033727075541   -0.06843041181804
N         6.36441213029046    0.37195388577071    0.12920633283712
C         6.73945245935706    1.06592132067445    1.39689002164073
C         6.64045393266058   -0.11491625213487    2.38458818507484
C         7.65026270542111   -0.96725189394680    1.62030265684301
C         6.99238094815417   -1.02156102901986    0.23128628166496
C         5.84653405971632   -2.05395072648144   -0.01286281999209
C         8.80082925006834    0.00363558079244    1.48900709512641
O         9.98888303972981   -0.27626115048037    1.55075404886106
C         8.23798077198515    1.39492953622883    1.31271719945553
H         0.45587833753299   -0.49886414070452    0.05839680524558
H         0.97859655800434    0.58500124814328   -1.20941382096545
H         0.90378133469366    1.12711311060681    0.48910270067598
H         1.63648298022276   -2.43554303800407    0.43476992820217
H         3.09659658393860   -3.26340366916344    0.03914459504331
H         6.00339459713278    1.86674853209786    1.50224761935345
H         5.60298031780889   -0.45228077053240    2.47590941321977
H         6.97386905114704    0.17583324825085    3.38712381481491
H         7.97771328137767   -1.90750450619140    2.05951919092669
H         7.71216692557703   -1.07848010386093   -0.59500689908829
H         5.99113953411479   -2.84519111062695    0.73015881733693
H         5.97317257886836   -2.47222240998595   -1.01733933749400
H         8.73633387305714    1.76587334917449    0.41529380870412
H         8.48069366631469    2.23767755952499    1.96536335423117
