30
 energy: -45.974272596362 gnorm: 0.126157566956 xtb: 6.4.1 (79825abcba525fcdf90b791dcacef51065a7a4e7)
C         1.03893719784379    0.20538557633980   -0.38882206041998
C         2.48084933145622   -0.11724361410631   -0.20287715804499
C         3.20143933989250   -1.28690097559390   -0.02704208131227
N         2.61783914590116   -2.48424733041611   -0.22311704428365
C         4.57667916190223   -1.09094512523263    0.19299605517042
C         4.94929435422665    0.22590176793948    0.21067213411080
S         3.58576461514626    1.19501492758971    0.04534702808745
N         6.30002630049153    0.43540205081578    0.30275068680269
C         6.87172892462302    1.13293428348451    1.49265525955351
C         6.93807809532195    0.05660356413621    2.59575802865920
C         7.72445335137129   -0.91226459575712    1.71642270063544
C         6.92867418160111   -0.95806660944057    0.40121850841000
C         5.75087946334599   -1.98130166738305    0.33647301140823
C         8.94639701290965   -0.10439327882739    1.34512496406736
O        10.09887164871600   -0.46781743021438    1.16250028459183
C         8.36765880090140    1.28108737331450    1.17459387701188
H         0.38008768278361   -0.57221626902178    0.00904357034860
H         0.75851216895462    0.04036058701214   -1.43388334014940
H         0.80337502025316    1.25502520798754   -0.18218596625910
H         1.65699425575832   -2.45125126595328   -0.54900911547166
H         3.17409225453568   -3.16796208505257   -0.72743797037218
H         6.36861457318429    2.06379001016691    1.76576548326472
H         5.96676750440732   -0.36232504451848    2.87782263913530
H         7.33765694906190    0.48918366336074    3.51987371455220
H         7.98963713641127   -1.84444119044632    2.21133115185850
H         7.71664295619886   -1.11188601897506   -0.34680345428226
H         5.66144882224429   -2.70632415881882    1.15219219350242
H         5.92852076796940   -2.56598626363498   -0.57267443371062
H         8.37752880680327    1.56611969032565    0.12103655612330
H         8.79682214825271    2.00669707027242    1.87057532214313
