30
 energy: -45.983027357778 gnorm: 0.115817109955 xtb: 6.4.1 (79825abcba525fcdf90b791dcacef51065a7a4e7)
C         0.99735424506238    0.12542952484972   -0.00185896837449
C         2.48428738526605    0.06368619420519   -0.05656986412390
C         3.29021154972226   -0.88559302945891   -0.66288781311043
N         2.75904233694264   -1.81876527781344   -1.47512034280556
C         4.66389494432214   -0.73542137887435   -0.40108169873262
C         4.90971050546658    0.28478437048438    0.47755087182010
S         3.48223781725148    0.99153108194285    1.01472575432257
N         6.21533222592446    0.55396986564729    0.79336204838970
C         6.70652290486650    0.32020217090426    2.18381246991434
C         6.97387509731171   -1.19647586380221    2.27289834359327
C         7.88666999852817   -1.13230279972599    1.05101068141291
C         7.03176728357978   -0.44806088350761   -0.02884057109073
C         5.97572573748354   -1.26063758215988   -0.84302588518887
C         8.84819532538345   -0.03659356282382    1.44919995634494
O        10.05471774714420   -0.09977123058756    1.26497482110034
C         8.08208461462209    1.00301453992841    2.23397048169574
H         0.74872925337701    1.13523639156084   -0.34174140466311
H         0.56332788544065   -0.03077162327834    0.99073704320955
H         0.54285793802729   -0.64569564509023   -0.63331003181291
H         1.74625245207419   -1.86242963254140   -1.52866806238911
H         3.33523417690243   -2.65310887103410   -1.53076844432953
H         5.97776715255094    0.68956047460501    2.90955011030147
H         6.09662599952384   -1.83502024150870    2.12729276113087
H         7.48938030479224   -1.37581000345243    3.22309424451956
H         8.44075507549310   -2.02286674168919    0.76101824859595
H         7.68826219707673    0.07889099996143   -0.73270717501803
H         6.13926453507473   -2.33757411941269   -0.73115098348223
H         6.15571229195526   -1.07923977435911   -1.90823068416086
H         8.11392778802014    2.02754955182942    1.85895329547091
H         8.46133457456589    1.01084231020337    3.25924555522269
