30
 energy: -45.974741700930 gnorm: 0.120809049576 xtb: 6.4.1 (79825abcba525fcdf90b791dcacef51065a7a4e7)
C         1.10634049737253    0.17194993384771   -0.31617601499259
C         2.57898894551977   -0.02150787304226   -0.20821149875415
C         3.17793128943961   -1.26657564647792   -0.11156471923902
N         2.56456007806060   -2.46193900621434   -0.02464475917453
C         4.57416324271949   -1.16346491816527    0.02261635677481
C         4.95615104047465    0.14650306866541    0.12896229312146
S         3.71308790731933    1.27152405084256    0.00711040371901
N         6.29409979556491    0.43277419274121    0.19815463555393
C         6.80994583237527    1.04830023795172    1.45684385288705
C         6.76771093489764   -0.13279276986900    2.44828788354918
C         7.71500454851455   -0.95559181655042    1.57882902302106
C         6.93360707665830   -0.95810101368717    0.25424000365346
C         5.76241461045899   -1.98724918644085    0.34121473579736
C         8.89673342173966   -0.05221965690292    1.31218319567726
O        10.09989447084769   -0.26630388940615    1.32625815567441
C         8.30970009602312    1.34013077001727    1.29408432154479
H         0.60863103015471   -0.14117816184590    0.60647259464096
H         0.61882339892071   -0.30486214310493   -1.17233128808998
H         0.84919254050953    1.22828710530837   -0.45018377486593
H         1.70762403486667   -2.64070346863094   -0.53866925149269
H         3.24593612720134   -3.21383003671184    0.01547431997975
H         6.26303634735753    1.89228172303393    1.88438437251238
H         5.76125133574138   -0.50711595927018    2.66142425343435
H         7.29219636482333    0.24380905189444    3.33364922397281
H         7.96755906154542   -1.91962902011435    2.01593142006694
H         7.53834736563278   -1.05650096149932   -0.65608888660387
H         5.70126521483321   -2.44817709831456    1.33260741465750
H         5.92515863612891   -2.77184812798685   -0.40569923177310
H         8.32298346356675    1.75029595296597    0.28269322909356
H         8.85690840738012    1.88470610882576    2.06808790538821
