30
 energy: -45.974616285087 gnorm: 0.123825094837 xtb: 6.4.1 (79825abcba525fcdf90b791dcacef51065a7a4e7)
C         1.06114877188264    0.09245668893595   -0.04072027359791
C         2.54011479951430   -0.08113418871108   -0.05808122308648
C         3.20298697058883   -1.29604088094259   -0.11163970232549
N         2.64805510124796   -2.51493805219839   -0.24952807725970
C         4.59658826770639   -1.10641758160858   -0.11594007735838
C         4.94491361776251    0.19192666553347    0.14137675489878
S         3.63595277494663    1.24660293576064    0.14373252881633
N         6.29618798016672    0.41738944748365    0.14972928143793
C         6.90558391669127    1.25099839024765    1.22815439605929
C         6.76604401067172    0.22745509949976    2.37384785187849
C         7.55176877644112   -0.89649078507645    1.70324781114437
C         6.93948084795071   -0.96534652292176    0.29417479627834
C         5.77246030693506   -1.98240450663936    0.08909315714244
C         8.83140757474661   -0.12802269429486    1.46735434591827
O         9.95385761848937   -0.53231936890652    1.73245201235680
C         8.43422157753831    1.27612330262273    1.07468054723679
H         0.64360062389903   -0.55144841791194    0.73907721851938
H         0.71055687235737   -0.24272525426977   -1.02192509616519
H         0.89034904604580    1.16540273851135    0.09908529074202
H         1.73595513627097   -2.66297142023016   -0.66985779999098
H         3.35275201497662   -3.24566081390242   -0.27540260506531
H         6.41206178812116    2.22576743489738    1.20654774606212
H         5.76253834070887   -0.18320434918836    2.52498049170451
H         7.24907080850523    0.57862558701794    3.29262040499615
H         7.57269710068023   -1.83229695975409    2.25826026878674
H         7.72279833864964   -1.13934905015526   -0.45430959818136
H         5.74765042090473   -2.64094137684615    0.96360267744505
H         6.10111432054614   -2.49205288612210   -0.82316045991647
H         8.88092074891506    1.29585543184044    0.07899266274744
H         8.90564815449379    1.98151108387829    1.76407582215773
