30
 energy: -45.981344849802 gnorm: 0.125459481466 xtb: 6.4.1 (79825abcba525fcdf90b791dcacef51065a7a4e7)
C         1.10358029480767    0.20899431584639   -0.33343421997467
C         2.54047209808048   -0.13717612709739   -0.15099606169820
C         3.18721047782941   -1.31311284162695    0.19130294032882
N         2.52313398259270   -2.47697671195395    0.32205531679980
C         4.57544475307134   -1.17876935995436    0.37256929096778
C         4.97026604431269    0.09301290420295    0.05645807683721
S         3.72000038920919    1.09834335802523   -0.44541096285418
N         6.31853008184789    0.33576869313831    0.04649132237484
C         6.96862190283415    1.23716875153391    1.04355027757244
C         6.83117139718747    0.46795738588238    2.37364312528306
C         7.53423811572997   -0.78074853372613    1.84757004201233
C         6.92152568167057   -1.01157537894972    0.45601450301918
C         5.76125665338364   -2.05557029261709    0.50347779477246
C         8.82072915323551   -0.10470812078563    1.43335445237019
O         9.91146599534209   -0.60729660883265    1.65990384112917
C         8.48201009066816    1.21456248392234    0.77885473888787
H         0.48913982212244   -0.69401388719235   -0.39733622557070
H         0.94198369577354    0.77930471388952   -1.25357394593589
H         0.78244520692222    0.74150240020074    0.56836329757286
H         1.54121098982480   -2.34362769736481    0.54242446407044
H         2.92720780697041   -3.02798960022160    1.07327573813289
H         6.47197791675221    2.20481693006666    0.93768535628042
H         5.76927334715512    0.32368698308207    2.59739403514775
H         7.32516987329630    1.03008161875264    3.17411826892552
H         7.60731512742674   -1.69341913377616    2.43570450261125
H         7.66529434550539   -1.40672594536356   -0.24737462177533
H         5.84289359901714   -2.67764518272725    1.40092499832988
H         5.93392761712351   -2.72380399475401   -0.34717492667491
H         8.79481786125931    1.16341441194692   -0.26558723752268
H         9.00024918058814    2.05123760631218    1.25475784774100
