30
 energy: -45.974833640052 gnorm: 0.119731326817 xtb: 6.4.1 (79825abcba525fcdf90b791dcacef51065a7a4e7)
C         1.13580678558322    0.20739130223831   -0.06097632484880
C         2.58496811742905   -0.11727790527041    0.04991577998255
C         3.24756092560707   -1.31300826185585   -0.17249372527276
N         2.66649546235322   -2.52681373116160   -0.21387127748920
C         4.63537538609689   -1.14208576127922   -0.02130976266564
C         4.96954995789760    0.18131241064386    0.07961062760486
S         3.66317936766329    1.23902707809736    0.09862739518190
N         6.31476107233573    0.43111188574231    0.14927348092212
C         6.85438369439330    1.18334495153525    1.32069178513113
C         6.68255229196187    0.13542682515353    2.43964992515888
C         7.55475034697950   -0.89425029146907    1.72595688015039
C         6.92891989144283   -0.96149628797987    0.32276815541825
C         5.79180167967315   -2.02859175924997    0.24108711743366
C         8.82958843870359   -0.12219155221334    1.47620193714771
O        10.01460457742104   -0.41511252834170    1.41653010187665
C         8.37985035481606    1.28736851361484    1.16887233307224
H         0.46792945535053   -0.46413691102133    0.48677737181216
H         0.74015352958319    0.05944865456714   -1.07072678990517
H         0.87068742177798    1.26519408107728    0.04244698418713
H         1.80799475868602   -2.51272077934085   -0.75543864876584
H         3.27253303413200   -3.26662901334048   -0.55536036278381
H         6.33118433260374    2.14095228486796    1.37948168860530
H         5.67375200578026   -0.23432534312784    2.64967660197164
H         7.18945013966214    0.41402341843781    3.37035778133342
H         7.66332251874411   -1.83979055143659    2.25357010925071
H         7.67785121710057   -1.23509709656168   -0.43111282027973
H         5.60891636315977   -2.68332441856678    1.09953417168305
H         6.04985808512851   -2.64687609878895   -0.62556907935558
H         8.62366996278135    1.28565187878038    0.10497716926598
H         8.97427408183828    2.06152559458442    1.66123605243013
