30
 energy: -45.976084564709 gnorm: 0.124639710395 xtb: 6.4.1 (79825abcba525fcdf90b791dcacef51065a7a4e7)
C         1.10864656272736    0.15248640290892   -0.24407274730184
C         2.57103965031476   -0.08850466608285   -0.09879551950274
C         3.21848270485052   -1.31270721427984   -0.11909095161776
N         2.61785209150142   -2.51616020069757   -0.05895227350767
C         4.60343630686393   -1.13558738789918    0.05011940910625
C         4.96273524021316    0.18139766706924    0.14858219732760
S         3.67035621016469    1.24726985394344    0.00930194979006
N         6.30848672743251    0.41902844642285    0.24517501006050
C         6.82354368243969    1.13053727614629    1.45254385066158
C         6.77326481634253   -0.00791833383555    2.49231142412535
C         7.64987732918237   -0.93391364306715    1.65302281869748
C         6.97096355115755   -0.96190528476337    0.27337905035756
C         5.79840727135793   -1.99204029061288    0.22504679893110
C         8.85468206457487   -0.05897028404812    1.39498395872969
O        10.01660653781629   -0.43785966264394    1.39599908971167
C         8.32166642745169    1.33894667834244    1.18215091641021
H         0.46242675623463    0.35143500238149    0.61608061183289
H         0.68854495447485   -0.55558959991089   -0.96529915939684
H         1.08940732258912    1.17676882676056   -0.63189580948279
H         1.65716141937040   -2.45554487032051   -0.38131309345096
H         3.11550813837820   -3.22526476127181   -0.58879391425277
H         6.23963545537162    2.00232745734463    1.75789396372486
H         5.76981959828901   -0.39898077981732    2.68896783784837
H         7.12158377668691    0.29636410584775    3.48572206526850
H         7.92000299643149   -1.91771135118705    2.03168389537922
H         7.71893485770341   -0.93515607922563   -0.52906438322963
H         5.83523543524868   -2.72051314430525    1.04176231466151
H         5.96718067526105   -2.56366680403890   -0.69403984309141
H         8.40483993798478    1.81438772455231    0.20319134265030
H         8.90298244784914    1.81759974072422    1.97464300683489
