30
 energy: -45.978278931165 gnorm: 0.118736306798 xtb: 6.4.1 (79825abcba525fcdf90b791dcacef51065a7a4e7)
C         1.02456433943011   -0.20556915697809    0.12473700424683
C         2.51040212333478   -0.10529645188192    0.12741480133353
C         3.38237428840628   -0.60490111869244   -0.82564658545009
N         3.03608509097505   -1.46599258300431   -1.80098148380470
C         4.72652203209436   -0.34734194561761   -0.50156300606706
C         4.87114109712865    0.46781238441545    0.58832186149472
S         3.39357113833310    0.78357841620799    1.32507480575037
N         6.17836386979811    0.77085635547892    0.86432657444064
C         6.62240554629635    0.24208460643785    2.18814507281101
C         6.76414685069760   -1.26491469307930    1.89050727324391
C         7.82018758110898   -1.08385127581361    0.80316363563762
C         7.02019622083777   -0.10317576811866   -0.07057188003536
C         6.02138794570474   -0.86867108483858   -0.99512653510016
C         8.85685857955830   -0.27211006367819    1.54481977786414
O        10.06808789110988   -0.24353634771455    1.38440228494732
C         8.08268974279548    0.59567882360143    2.50979670370732
H         0.54591649584071    0.73431237307221    0.41553474626719
H         0.76242017663535   -0.83712336019503    0.97939731379518
H         0.68713681651476   -0.56101985476373   -0.85492050686494
H         2.19251479459637   -2.01344487526544   -1.66240864072080
H         3.85014663416061   -1.91691039584928   -2.20742940661295
H         5.91273204489191    0.60362708607667    2.93638045151034
H         5.87533373391748   -1.76264297803872    1.48952886431674
H         7.22068792613071   -1.86048708441662    2.68903239833052
H         8.27795423913273   -1.92734808553109    0.29015989552942
H         7.73469866765890    0.57246990865709   -0.55748175961680
H         6.05274675480034   -1.95640468732093   -0.87303858633271
H         6.17963266049607   -0.65695292951551   -2.05818609466034
H         8.32523653978104    1.65381533918885    2.39647400405119
H         8.14156780901707    0.23086850325286    3.53864440187668
