30
 energy: -45.973251599505 gnorm: 0.116258896603 xtb: 6.4.1 (79825abcba525fcdf90b791dcacef51065a7a4e7)
C         1.04742595385999    0.04244287030676    0.02745092304648
C         2.53474550391460   -0.03026669820651    0.00822618376172
C         3.36662307811595   -0.92387104016931   -0.64577479382577
N         2.91365698213112   -2.04150036423694   -1.24443938682266
C         4.73270568553791   -0.65714069630180   -0.44385081742305
C         4.92060718130954    0.35294748150453    0.46039205807549
S         3.47852560381037    0.98756432338232    1.04638544913845
N         6.24237600351632    0.68713838841329    0.59488830136560
C         6.67007898993300    0.62431946627390    2.02401108395750
C         6.80771098450131   -0.90081242388509    2.21044041969291
C         7.77104068162001   -1.09132439564294    1.04167044466941
C         7.00417881451949   -0.43434767044592   -0.11825577484240
C         5.96441553309649   -1.42936608838849   -0.72425331985388
C         8.83915092688407   -0.16510423082418    1.57545045248164
O        10.03456652135745   -0.40533509007077    1.49240008081349
C         8.14059750635717    1.05950424020008    2.11944734467726
H         0.63730885047602   -0.32102981173919   -0.91951050479469
H         0.74357366329771    1.09147748816973    0.09973287288902
H         0.62882757107123   -0.55047710337866    0.84790974201288
H         1.91992163659386   -2.21846046803604   -1.35257115485161
H         3.58698473131924   -2.38364505701048   -1.92325433643618
H         5.91660156638296    1.26275858216726    2.49184961451334
H         5.96435394754384   -1.58873387894352    2.09203912388020
H         7.27808377091971   -1.02724651260916    3.19204240859632
H         8.07574048806810   -2.08976482124096    0.73428670908865
H         7.60839051286827    0.10580354878534   -0.85802394122806
H         5.85184362854086   -2.41416143271519   -0.25889439474551
H         6.22020362020937   -1.58804067467487   -1.77751322386336
H         8.28473093376498    1.87237683432403    1.40545324936685
H         8.41031072835031    1.48057457004792    3.09157662558622
