30
 energy: -45.980226591666 gnorm: 0.108543971997 xtb: 6.4.1 (79825abcba525fcdf90b791dcacef51065a7a4e7)
C         1.08201449587162    0.22508989650600   -0.13623828238342
C         2.54602243868782   -0.03721861429091   -0.06106712243410
C         3.23731429223522   -1.21401873743584   -0.29670104341759
N         2.69385453475588   -2.40227979871392   -0.62129315269580
C         4.62534242470229   -1.01573321787490   -0.18642489512130
C         4.95165825481363    0.25003124087645    0.21928262959245
S         3.60345132551190    1.20942705041783    0.51529583902402
N         6.28446517083571    0.52501175764449    0.37694386814042
C         6.72692506713291    0.95327628656918    1.73712280166649
C         6.75938779579231   -0.44343841677432    2.39123285005362
C         7.72933890297771   -1.06709058129046    1.39094539102371
C         7.00701114920048   -0.78855597776442    0.06211678214690
C         5.86869576176567   -1.81871961221818   -0.22319591191169
C         8.87198195376002   -0.07962252503975    1.44514949733176
O        10.07056103182059   -0.30820815399937    1.51431219435255
C         8.21199369947056    1.27806573309132    1.51351254293265
H         0.55723311463669   -0.71922553431502   -0.30920430057320
H         0.70109645458207    0.85836716174561   -0.94363278366266
H         0.89102478854753    0.76212380568256    0.79920219098843
H         1.88647271095542   -2.44345357446745   -1.23526107283916
H         3.38873707358070   -3.13345191506200   -0.73854748634353
H         6.21650374371752    1.80359282253000    2.19607540353590
H         5.77148438936394   -0.91484244058594    2.40942606121482
H         7.13078418052500   -0.40511310481555    3.42146316347233
H         8.01221553843755   -2.09148614201741    1.62504913619401
H         7.64387911594818   -0.54472837424032   -0.79755719813404
H         5.70003948363367   -2.60444914571694    0.52060338414280
H         6.09648347024536   -2.32397662167264   -1.16807141256673
H         8.43227983992473    1.80884702554985    0.58557445011788
H         8.72080537890734    1.85858223517304    2.28758750635933
