30
 energy: -45.973123263427 gnorm: 0.122468795632 xtb: 6.4.1 (79825abcba525fcdf90b791dcacef51065a7a4e7)
C         1.19484465697847    0.10730880986602   -0.15663479915925
C         2.66969205682274   -0.05038467423404   -0.02346719322056
C         3.27908437418650   -1.29411391355852   -0.01676886950073
N         2.62743034682835   -2.42851181171610   -0.33482755790211
C         4.67604247489593   -1.13101093577377   -0.01912245007860
C         4.99948326693288    0.19468884400727    0.08645417260756
S         3.73607482096884    1.29767832155096    0.20020553445543
N         6.35760782161533    0.37438035044323    0.09382097884303
C         6.80384790403472    1.16939054090063    1.27623231648507
C         6.60665022174341    0.10779741253075    2.37798494223955
C         7.53853448033374   -0.92640077036414    1.75160804380510
C         6.99224013917754   -1.00203767467231    0.31600157616849
C         5.84726433323474   -2.03306147380944    0.06218532245959
C         8.74987517317052   -0.06112763904398    1.49156858957287
O         9.87770349924978   -0.53158676574984    1.47430159958976
C         8.32339976726479    1.34223764335921    1.12789288531944
H         0.81285593629012    0.04922942121007    0.86696461895140
H         0.81903194430867   -0.76557195762558   -0.69965274662389
H         0.94107191142920    1.03615416126182   -0.67891544822797
H         1.62182412527172   -2.54508011397972   -0.25942692362002
H         3.05391173173625   -3.34062237694374   -0.46670228171539
H         6.28753252303825    2.11261759673085    1.47103163299194
H         5.58999465094269   -0.29399435675988    2.31898739631245
H         6.89577547713704    0.34641432332119    3.40766798033290
H         7.68897974321857   -1.82107537169309    2.35255196732767
H         7.83874257707594   -1.14068766726649   -0.36832426655277
H         5.77783046679414   -2.62934229306973    0.97798079879831
H         6.00538800887596   -2.61288040584413   -0.85365773378301
H         8.60576848640689    1.71792521378061    0.14277836232431
H         8.70508355449403    2.05891156024315    1.85986062073480
