30
 energy: -45.977800876012 gnorm: 0.109888923810 xtb: 6.4.1 (79825abcba525fcdf90b791dcacef51065a7a4e7)
C         1.02196123096975   -0.04502414373853    0.06648398496085
C         2.50766135606160   -0.11767794647879    0.13854142814262
C         3.30618753166432   -0.80477114185017   -0.76063885681213
N         2.96682347290517   -1.57129970685468   -1.81417522674611
C         4.65883592198980   -0.57554989323330   -0.45096159976308
C         4.81568004604635    0.20032717849308    0.66557543978313
S         3.39041416557240    0.85863243123163    1.26638940363473
N         6.09472262947977    0.59308850769011    0.95991236157075
C         6.70199861624399    0.25914295278186    2.28239647804527
C         6.88358835483141   -1.25757662878849    2.06719279935592
C         7.81194907757355   -1.06036501571101    0.87154397098459
C         6.98820944113580   -0.14047718362451   -0.04518050560310
C         6.00200542868222   -0.92937451389640   -0.96357312823234
C         8.89973220137210   -0.19760637531515    1.46823467085111
O        10.11314656643784   -0.33644888294306    1.42379357580640
C         8.12445046323043    0.83910289243929    2.24781630764135
H         0.67636659113960    0.05754360796112   -0.96651580982784
H         0.70332147448393    0.89658296196663    0.52459891174291
H         0.42597614212192   -0.78065714298811    0.61746242725659
H         2.06619777595112   -2.03123966793840   -1.72559827686665
H         3.80298307712853   -1.98312989793935   -2.21723352599459
H         6.11837176174622    0.53724658273264    3.16344340882207
H         5.91722181887329   -1.67258071441582    1.76319738242189
H         7.38624508960083   -1.71288376052264    2.92789613098003
H         8.19715699696569   -1.95567864700875    0.38756217534913
H         7.59123796710341    0.58095944209529   -0.61084635218412
H         6.22942326604790   -1.98756517783404   -0.79754035710181
H         6.07375009500046   -0.67327804060780   -2.02622494767544
H         8.18919308092925    1.79227543995706    1.71999592470746
H         8.70357332143144    0.83592195923399    3.17500958858905
