30
 energy: -45.978920896318 gnorm: 0.130114817405 xtb: 6.4.1 (79825abcba525fcdf90b791dcacef51065a7a4e7)
C         1.12749803105087    0.16586237102687   -0.57096722631664
C         2.56699361274321   -0.06652535005460   -0.26827249305276
C         3.15620423021971   -1.30477596530825   -0.07376665513547
N         2.50397859434411   -2.46532355326068   -0.27477381805919
C         4.52062768279536   -1.16067866076098    0.23556268770833
C         4.93795159748501    0.14238660113082    0.26875804648814
S         3.67935613754987    1.22987448745661    0.02578971856847
N         6.28124720184776    0.40421836654690    0.33077942237426
C         6.82990414789231    1.03344303996344    1.56864850134918
C         7.03591406326233   -0.06404080100434    2.63298626838641
C         7.81210003131762   -0.90696627778625    1.62435642737090
C         6.89183340774090   -0.99921510034723    0.39564821384124
C         5.71088392961843   -2.02041452043266    0.42585475505704
C         8.90542167385547    0.05119115551652    1.21174704233564
O        10.02618853932916   -0.33473617518159    0.91414260401448
C         8.28710260452198    1.42821434284979    1.28290936897864
H         0.42354542835498   -0.48138415781329   -0.03939687775361
H         0.93686830198567   -0.07002005866618   -1.62265363615320
H         0.93546941749687    1.23935687921062   -0.46769130219788
H         1.51658416788703   -2.35010181467634   -0.06912003902072
H         2.87553694125556   -3.21553469516953    0.29998753647235
H         6.22098278398108    1.88569931200516    1.88022456781258
H         6.06943004504270   -0.43777302848213    2.98617000540755
H         7.53451578717797    0.26743582474420    3.55075430596068
H         8.08062966643129   -1.88483466839692    2.01916684165879
H         7.52194546992239   -1.10404429429030   -0.49657467497085
H         5.75181056311959   -2.80664415397448    1.18692059669758
H         5.84119700049121   -2.60967232306787   -0.48834179286509
H         8.38947237644974    2.05503900985276    0.39525226455025
H         8.80153054701661    1.83980241000382    2.15528539882776
