30
 energy: -45.977994255320 gnorm: 0.113430235654 xtb: 6.4.1 (79825abcba525fcdf90b791dcacef51065a7a4e7)
C         1.11239588235398    0.21481153525617   -0.45245090514649
C         2.54847833026112   -0.02924338403720   -0.14280573970868
C         3.20141167224398   -1.24652682517454   -0.04198217243365
N         2.73364483834756   -2.49826074943254   -0.20638798814249
C         4.56021471779690   -1.06233740739974    0.27079347006314
C         4.96868411884776    0.24014860228979    0.17117808207433
S         3.67330529029572    1.28679202776340   -0.05742046829488
N         6.32122653660480    0.41544395892080    0.30058508032043
C         6.81279095258491    1.04891421544674    1.56008809920834
C         6.81788319858071   -0.11445630039138    2.57313738731877
C         7.70507502157970   -0.94944695978472    1.65335293439590
C         6.88197802234649   -1.00904779084548    0.35563052723489
C         5.68985544433464   -2.01738039574950    0.33301474550948
C         8.85525840935279   -0.06582504076713    1.22914206364029
O        10.05081216512137   -0.31618889805697    1.18919424371456
C         8.28869857737180    1.33503263928068    1.24267432472966
H         0.51984275478643   -0.48637182383954    0.14275247537297
H         0.83069089489019    0.05406176082932   -1.49783425213617
H         0.74904642606867    1.21590332977505   -0.19608442682159
H         1.75203662053468   -2.75516144616719   -0.23744666423581
H         3.42782244976897   -3.22749194205776   -0.07386515565524
H         6.26102163946185    1.97389685508541    1.74492145069632
H         5.81721636442978   -0.52894461329344    2.73242082159608
H         7.34070454411855    0.16989941287679    3.49323426904834
H         8.07193431607870   -1.92629666487303    1.96220391499499
H         7.42677773236567   -1.11965564422312   -0.59044094567320
H         5.76716773807074   -2.51595786401595    1.30486687099811
H         5.74041361754303   -2.69365058926832   -0.52725503172037
H         8.41471254372388    1.84835961925101    0.28771895439852
H         8.80597716865024    1.72570223438514    2.12294752579617
