30
 energy: -45.975332875931 gnorm: 0.110641934138 xtb: 6.4.1 (79825abcba525fcdf90b791dcacef51065a7a4e7)
C         1.02295747249556   -0.07861913146408    0.08989838195045
C         2.50763091447539   -0.17757907637179    0.15095090891366
C         3.31147820654874   -0.92654151481732   -0.69234684039825
N         2.95579481307265   -1.82240994284469   -1.63233725254969
C         4.66631011524119   -0.68455075792003   -0.40256929086540
C         4.88002379203023    0.36660079115883    0.44751727186246
S         3.44544635348438    0.86990583706298    1.16473248851075
N         6.19531166720413    0.68556684192109    0.65994158749516
C         6.73354721795637    0.64662272122081    2.05208161175057
C         6.73307431588428   -0.88131554711414    2.26452024706830
C         7.72849673791266   -1.13123714003199    1.13447795905061
C         6.97780062511411   -0.44341286419012   -0.01811802057498
C         5.94659203535897   -1.30241218408855   -0.81632311717108
C         8.87205748329332   -0.20145903294422    1.46831307258642
O        10.09006241312577   -0.30190140225398    1.46689995804875
C         8.22377635845132    1.02010722111812    2.07747879637129
H         0.82980621239597    0.65689051518623   -0.69671621192594
H         0.66558116070713    0.24239315418870    1.07339103882113
H         0.55368917525664   -0.97547691139112   -0.32886737763535
H         1.97699235961739   -1.94971074805942   -1.86952400747465
H         3.57952513264796   -1.90450794649468   -2.42948428671630
H         6.30171282104719    1.28295209559114    2.82848975932673
H         5.75527511496234   -1.32422319129660    2.04946809297198
H         7.06529714266671   -1.20459503396446    3.25744369344235
H         7.97099841260823   -2.17477317737822    0.94359711768265
H         7.75066148206729   -0.02563558856346   -0.67556786732422
H         5.99834760861461   -2.37224670433066   -0.58866394866193
H         6.18256646376013   -1.16267130065364   -1.87686550066796
H         8.47986454003514    2.01937007122657    1.72080461754183
H         8.66413502629418    1.01441790245744    3.07804496554101
