30
 energy: -45.976079313300 gnorm: 0.128209344786 xtb: 6.4.1 (79825abcba525fcdf90b791dcacef51065a7a4e7)
C         1.17225404183535    0.31244259016736   -0.46618363102782
C         2.57583331955410   -0.11474208094215   -0.21073470490663
C         3.14973265739847   -1.29396124781477    0.23462803704745
N         2.47575982483020   -2.43542120466381    0.47021804457552
C         4.55007080594940   -1.18796673683609    0.31155829108522
C         5.02656271963018    0.05013487566358   -0.02504252958740
S         3.78883140305520    1.09505678345506   -0.47435917243231
N         6.37793738526137    0.21302125267978    0.13019970651706
C         6.83543457189374    1.14048751782658    1.20712618584002
C         6.90613235267218    0.33346316335418    2.51992444250906
C         7.70934232756202   -0.81533147999855    1.91540250187212
C         6.89180166930997   -1.13245836498744    0.65200146073834
C         5.65198324946021   -2.07735077604969    0.74382180430346
C         8.82351527078798   -0.01094779751623    1.28671344593452
O         9.95073078735420   -0.44882391110093    1.10986220618202
C         8.31688336611378    1.34564522774559    0.85479344987412
H         0.57968251587339   -0.33160090655454    0.19040705364058
H         1.02410453712441    0.35871862843161   -1.54966633431227
H         1.13160558917151    1.36190261658561   -0.15487555428369
H         1.62644963285739   -2.52770694029753   -0.07811836946545
H         3.02213703154806   -3.28941791547598    0.41204119032485
H         6.26175999159011    2.06152620787137    1.33670563722855
H         5.86187343782109    0.15564041196472    2.79634490951505
H         7.32685772072672    0.90439295114460    3.35527343860353
H         7.96104784606772   -1.69951510814556    2.49770282103943
H         7.45238151138600   -1.62070905779924   -0.15512526639374
H         5.36988256814786   -2.52236916798700    1.70373381336638
H         5.80103274049707   -2.91234092221695    0.05061383229774
H         8.45632081734110    1.62974039577701   -0.18979785787198
H         8.72799237636879    2.10744858173216    1.52242045177979
