30
 energy: -45.980472448483 gnorm: 0.113397661442 xtb: 6.4.1 (79825abcba525fcdf90b791dcacef51065a7a4e7)
C         0.98772472252131   -0.21600568504908    0.18474864938215
C         2.47313556007729   -0.12920522882598    0.12313655693046
C         3.36596431455173   -0.71293790982029   -0.76025423173488
N         3.05415089347878   -1.31522103607139   -1.92331068818827
C         4.71040693765455   -0.46685956937935   -0.42856227842794
C         4.82285977238654    0.30061583830964    0.69907957207489
S         3.33618987359425    0.76503678544487    1.33141798355972
N         6.11043680274277    0.67343472793980    0.98191714645282
C         6.68085795114036    0.12545468876291    2.24825264239342
C         6.90364502409975   -1.36564965126302    1.92160372275870
C         7.84071341191767   -1.00073725575434    0.77309862736051
C         6.99236475186500   -0.02403854168364   -0.05845928169158
C         6.01548549147629   -0.65080403672097   -1.10310002951714
C         8.90572939336162   -0.26568109950256    1.55354580510594
O        10.11030199265770   -0.45238939260005    1.46538945238432
C         8.10487513837821    0.67538848816968    2.42337101951938
H         0.57870193974902   -0.46688123577885   -0.79851438671941
H         0.69110287247051    0.81304083197896    0.41080896698344
H         0.56131326970582   -0.93507487567452    0.89259337065083
H         2.06181765654770   -1.44737421693170   -2.09161866771307
H         3.58338946411924   -2.13785984053006   -2.19606501343470
H         6.04581293899470    0.31740593990890    3.11662939163718
H         6.02778118378859   -1.98328386789221    1.69822870999865
H         7.50363755100304   -1.99846131832339    2.58518262928100
H         8.32084957298127   -1.78597256586805    0.19250858783466
H         7.70344362260888    0.72791623192061   -0.42318235151942
H         6.28890305604992   -1.70436434351815   -1.22271087464318
H         5.99823046458832   -0.06627062766132   -2.02937458359253
H         8.17924987774429    1.66524184536390    1.96951796155754
H         8.37729005263685    0.64299367034617    3.48158719523690
