30
 energy: -45.975268858823 gnorm: 0.115277812378 xtb: 6.4.1 (79825abcba525fcdf90b791dcacef51065a7a4e7)
C         1.01794091700573    0.25925107749519   -0.03889325636008
C         2.46088538765720   -0.10184623106209    0.03387815958456
C         3.34119470590751   -0.73664848667797   -0.82655653716932
N         2.92193977785591   -1.51901151163971   -1.83888369271715
C         4.68586678257001   -0.57518218264283   -0.44723388066791
C         4.86842774845538    0.18742079280124    0.67452743408785
S         3.38178279376582    0.71943377604233    1.25122059969583
N         6.16670320061650    0.49515791125117    0.98537196040125
C         6.61834561708996   -0.02321898398252    2.31072946195223
C         7.06498685297283   -1.47993790969639    2.06946752136686
C         7.98840380400676   -1.08825121738455    0.91872652445484
C         7.06855237576122   -0.26120496111130    0.00494743845723
C         6.02764474101724   -1.06449730359307   -0.83745096400206
C         8.87081343366376    0.00063402089284    1.48383409623666
O         9.94367715001841    0.39480269466624    1.05114347342394
C         7.98216127927365    0.65385493585338    2.51687581359050
H         0.62394770263142    0.39102160478784    0.97325803882819
H         0.32477162652242   -0.43388783170128   -0.52582170301492
H         0.96614064883486    1.27853104233496   -0.43678325531587
H         1.98851245423677   -1.25773808180272   -2.14049090526315
H         3.34217709537421   -2.43202685054861   -1.98388911889336
H         5.88180241154789    0.18481123539374    3.09075071697823
H         6.33421740746643   -2.21625253104840    1.71972092323070
H         7.59652837996691   -1.82497676044400    2.96344201698695
H         8.53870578635214   -1.88626296876021    0.42420150961845
H         7.58072308137429    0.43051893998940   -0.67570759056333
H         6.15173962128534   -2.11436577405807   -0.55209174604415
H         6.14121523959342   -0.92688291996569   -1.91824956229858
H         7.95249004782213    1.72348052120805    2.30159787198887
H         8.49058115419161    0.53872139174037    3.47777865985465
