30
 energy: -45.979435863088 gnorm: 0.114118827216 xtb: 6.4.1 (79825abcba525fcdf90b791dcacef51065a7a4e7)
C         1.17896036248027    0.26039823433265   -0.27606910998383
C         2.62341377607474   -0.04489196674265   -0.08080539277706
C         3.20543057318476   -1.29576123877464    0.04105018612948
N         2.52810526828491   -2.45927476566914    0.05286443528255
C         4.59615929500163   -1.14081498207615    0.18234884276073
C         5.01287013644774    0.15643922329396    0.05302808400042
S         3.76162531026429    1.26057188200178   -0.14946512098123
N         6.33850087757314    0.46020092059981    0.21818731485390
C         6.73975029869901    1.05629019811083    1.52698235673062
C         6.80274825464184   -0.16807807749293    2.46329391183332
C         7.72462454033416   -0.98826806052438    1.56454217992445
C         6.88911374638306   -0.96822783402666    0.27355632650367
C         5.76411511304300   -2.04990559987336    0.22108124118612
C         8.84925649042996    0.01056671532880    1.41895216711266
O        10.03606317754637   -0.21469320066320    1.23354847232960
C         8.23432972366949    1.39085864986929    1.40363379939659
H         0.57752395464718    0.31588986418550    0.63620239600415
H         0.72477379950169   -0.59637457549003   -0.78369046209557
H         1.07092190087200    1.11530733366117   -0.95237487618590
H         1.57606738754430   -2.43268283146805   -0.29846735703007
H         3.10977561873578   -3.24031941814042   -0.23497551285213
H         6.03045428340786    1.87567524958812    1.66738507518298
H         5.89533246175051   -0.74638663625020    2.66494131691500
H         7.31672083021138   -0.01660640895814    3.41915327756738
H         7.91922379733251   -2.02284098747960    1.84022316077130
H         7.49561473183375   -1.05503342717672   -0.63678064100619
H         5.67338563052739   -2.66890357385935    1.11978191157705
H         5.78119737178328   -2.74922090393303   -0.62190623674985
H         8.54650608666265    1.85813174542986    0.46793852855519
H         8.68349207837802    1.98708587047125    2.20228708050116
