30
 energy: -45.973116496172 gnorm: 0.128500913805 xtb: 6.4.1 (79825abcba525fcdf90b791dcacef51065a7a4e7)
C         0.98177622620681    0.11940805181567    0.05242326926140
C         2.45811796719262   -0.06679249424280    0.11175387816555
C         3.25979312656942   -0.93579482167566   -0.60964626404735
N         2.84366259085181   -1.52806170172648   -1.74486790772283
C         4.63454122911137   -0.70298725656338   -0.42534127887507
C         4.90342249475604    0.24521421982985    0.52432028402771
S         3.48310078158414    0.99404696664302    1.02197658894469
N         6.20553449609900    0.56786199932935    0.80225617167776
C         6.68475152944766    0.32141518582728    2.19469395996139
C         6.97892225334325   -1.19286854219691    2.20627513926254
C         7.92464399575472   -1.13310570260928    1.00946230365529
C         6.96982182863075   -0.48466177257181   -0.00688383957441
C         5.91371705596793   -1.38853174136768   -0.71826570226592
C         8.90050182090495   -0.07281843251424    1.46460711862622
O        10.07560996933515    0.14574724595212    1.20970211568473
C         8.10219462555365    0.90614576615298    2.29401059660869
H         0.48660178871291   -0.54734903572124   -0.65981379689323
H         0.67079810942025    1.14962868765854   -0.14748315241516
H         0.65443820566611   -0.11794798661113    1.07048186068728
H         1.99688294888053   -2.08109331011019   -1.83226108805218
H         3.56910321894137   -2.07592348529955   -2.19742325232264
H         5.95338484031372    0.74686445002920    2.88628727682310
H         6.17049891565622   -1.88084837284190    1.93861612640849
H         7.33041281468535   -1.51528526606346    3.19282490740833
H         8.33792470780940   -2.11010086087026    0.76679064298196
H         7.54588720859546    0.10992273271944   -0.72709908617718
H         5.93550301530503   -2.39402865726308   -0.28519000897186
H         6.14227260119340   -1.57843337120840   -1.77261921459976
H         8.30466616025423    1.92885701713728    1.97091487697973
H         8.46322635400941    0.86003581502625    3.32484072175943
