30
 energy: -45.978512857582 gnorm: 0.116289411105 xtb: 6.4.1 (79825abcba525fcdf90b791dcacef51065a7a4e7)
C         1.04719836758414    0.14653527830664   -0.26474350591536
C         2.52372696785092    0.02076297733306   -0.11702642845834
C         3.21444397948634   -1.14880654252531   -0.38773557066924
N         2.87630978322983   -2.19779753257084   -1.16101175168198
C         4.56669238638602   -0.98207538580340   -0.03884444747494
C         4.90861496333335    0.26091987091733    0.42082067757717
S         3.54899798614523    1.23821679542264    0.56934160455825
N         6.25131610623720    0.50549231048391    0.53991557372811
C         6.78912852791379    0.81044181949870    1.89897098011034
C         6.98502030627333   -0.58466575646372    2.52748272430219
C         7.82223660782963   -1.07713184230110    1.34982904329504
C         6.86830582364556   -0.84583990648678    0.16591837157095
C         5.73045297568582   -1.89730081741843   -0.02933329074996
C         8.90893370112665   -0.02703233840100    1.34313204020542
O        10.07900118042162   -0.12922458661845    1.00530736053779
C         8.24626584209632    1.27156378840383    1.74074343087082
H         0.78763874733204    1.18764708799834   -0.47865791770338
H         0.52839139224184   -0.02729765641881    0.68322588125392
H         0.65198158115811   -0.45571348178651   -1.08998983223248
H         1.88470678398952   -2.24369684994238   -1.37345946778053
H         3.31252377390801   -3.10380416572377   -1.01926435490184
H         6.13186759900994    1.47499958708279    2.46516588885448
H         5.99681669552542   -0.99390592215105    2.76089651675741
H         7.59986628729570   -0.46374547182105    3.42643840027682
H         8.11928895692242   -2.12002441651963    1.25847808248275
H         7.47881705292004   -0.67943373939574   -0.73056201508564
H         5.59056814469257   -2.72484719231502    0.67398204891448
H         5.90501925343696   -2.43564247585316   -0.96724398381235
H         8.44524964035008    2.07714639390930    1.03168350121805
H         8.61624612425964    1.70960670779677    2.67150321521219
