30
 energy: -45.973469055063 gnorm: 0.114603210371 xtb: 6.4.1 (79825abcba525fcdf90b791dcacef51065a7a4e7)
C         1.12629600712075    0.18396404335213   -0.29725398716952
C         2.58828780646037   -0.04111970265179   -0.12493743548425
C         3.22458250952441   -1.26888630035587   -0.04757770176497
N         2.72158132419507   -2.51720826035044   -0.08438766212000
C         4.62593329987294   -1.15037942981918   -0.03108144832666
C         4.92641952418540    0.17338256010234    0.14385422521327
S         3.66078893694276    1.27737244872752    0.21534965111379
N         6.26933859514879    0.43971206165544    0.09402879923783
C         6.82108990703221    1.17421493231663    1.27103517664732
C         6.74005554469990    0.12981521122541    2.40346106815776
C         7.53325950858411   -0.93310108405818    1.64757841013664
C         6.90622025024248   -0.94546918141517    0.24337287888087
C         5.80622905471122   -2.03917486311912    0.06384681189834
C         8.82658049385728   -0.17577092740116    1.45409391787092
O         9.98047943233622   -0.54812601810492    1.60737666342705
C         8.35235923550435    1.22769911798944    1.15582987810325
H         0.55524990908934   -0.52781025204653    0.30634197082950
H         0.95403238040374    0.14263165881497   -1.37736573995839
H         0.89170406262574    1.19541287183226    0.05184378473390
H         1.75505700187932   -2.62134118161088   -0.37679894416871
H         3.38285951822155   -3.16827688430808   -0.49675131196274
H         6.34926573972362    2.11014669465507    1.58025891249107
H         5.71242880952751   -0.15344077267486    2.65297104262208
H         7.28489711623838    0.47215418505695    3.29043924759614
H         7.59982740663336   -1.80168324854214    2.29976224653994
H         7.75231603018368   -1.00167388347286   -0.45308603475197
H         5.80461449280355   -2.70128835585106    0.93600296393819
H         6.03570354211848   -2.74954692263665   -0.73782306640805
H         8.62331632445958    1.59233323165155    0.16338436975922
H         8.72582454343494    1.95969861982653    1.87678839005476
