30
 energy: -45.978480688521 gnorm: 0.121003545176 xtb: 6.4.1 (79825abcba525fcdf90b791dcacef51065a7a4e7)
C         1.17219604752715    0.24390816864936   -0.03696540038893
C         2.61261871074291   -0.10960374226548   -0.17108311081904
C         3.25881483973378   -1.33459402546679   -0.18086185119479
N         2.46853149091226   -2.42453338151225   -0.16832023193334
C         4.64613775249525   -1.18413005685836   -0.00537462535432
C         5.01188644597084    0.13404046227672    0.03815271511471
S         3.71904529659967    1.20841715177800    0.03656233939392
N         6.34472622153326    0.44349759028321    0.10612340982275
C         6.79571293948042    1.14446069295233    1.34488476365675
C         6.68819957294849    0.07017385618633    2.44673521327656
C         7.59007876855670   -0.90430496007499    1.69352400499732
C         6.94280165969663   -0.95350644256817    0.29934470105877
C         5.85089365343936   -2.04264017694947    0.05454485024984
C         8.85005439871361   -0.08637169848161    1.52886989683375
O        10.01640409198690   -0.40364079037883    1.70941182793302
C         8.31800121186474    1.28754793683116    1.19295376536733
H         0.72098447693033   -0.34399894130938    0.76790584098428
H         0.62296406597386   -0.19607051140547   -0.87528962746028
H         0.92624029357206    1.30580431862511    0.07172546081754
H         1.59327848533358   -2.34282180562948   -0.67603341726735
H         2.93395598350225   -3.25814866816521   -0.51428059696756
H         6.29099837961916    2.09814111340457    1.51798153523241
H         5.65539124708797   -0.24646748200513    2.62436153863383
H         7.24110559793921    0.37671441541275    3.34178069520844
H         7.78921086324824   -1.91489888259118    2.04460283993738
H         7.73522894396737   -1.20797683354174   -0.41577477821732
H         5.82296993396284   -2.66515432579674    0.95496121474776
H         6.05106031124815   -2.64433201444004   -0.83868626885317
H         8.45117840544271    1.63700377319477    0.16754247216338
H         8.82301096540272    1.99735983446754    1.85341799687045
