30
 energy: -45.968699208734 gnorm: 0.123741997896 xtb: 6.4.1 (79825abcba525fcdf90b791dcacef51065a7a4e7)
C         1.12422529547052   -0.20559008402202    0.38379284065190
C         2.57943369542776   -0.05474369106171    0.10560300632336
C         3.35816306198532   -0.70227052488675   -0.83914874169451
N         2.94932761889670   -1.52367828158295   -1.82444857522809
C         4.72995690814435   -0.58736894425146   -0.55091391013847
C         4.90210900369444    0.39047011254809    0.39112361519049
S         3.51236876344417    1.01090841260296    1.10484935838274
N         6.22011704297209    0.56531547321058    0.72147118827515
C         6.54338908140365    0.41139235643496    2.17097829626987
C         6.79151620242179   -1.10983724177166    2.23437535567350
C         7.77676010509088   -1.16052475720934    1.06945158064934
C         7.06138225899084   -0.43232251709226   -0.08080074648880
C         6.00901021079871   -1.24821086263640   -0.89642421705618
C         8.76669899414675   -0.12916145800996    1.55932414238840
O         9.96052615252087   -0.29535589527567    1.35737662905799
C         7.98145909302683    0.94119783964728    2.28133846282758
H         1.10134529533038   -1.01727928750464    1.11706053322402
H         0.46845106623206   -0.36815824105507   -0.47734378176492
H         0.86276750295500    0.75136776023033    0.84833871747710
H         2.00330164393975   -1.88746556955098   -1.76778326925722
H         3.53986538645328   -1.93845371495268   -2.53890604750326
H         5.82992128578229    0.77718010874206    2.91352031734115
H         5.89511890551791   -1.66302799204090    1.93611746996733
H         7.28084877857909   -1.54621106158029    3.11239023150065
H         8.25820050799353   -2.09062019424358    0.77390524803094
H         7.80166494704475    0.04787024869985   -0.73309554841508
H         6.00976058071108   -2.32356173445320   -0.68984935254379
H         6.04336278911985   -1.10591750621049   -1.98202731516421
H         8.17373836753409    1.91702780652076    1.83177375721400
H         8.36242323838417    1.06773678118342    3.29816440632400
