30
 energy: -45.973996461227 gnorm: 0.121806177873 xtb: 6.4.1 (79825abcba525fcdf90b791dcacef51065a7a4e7)
C         1.09935894101603    0.17744454531740   -0.36152335984516
C         2.57086216759340   -0.01918652099943   -0.24409180006725
C         3.25441140786870   -1.22320269344222   -0.28112904144975
N         2.56056734819995   -2.33811899860170   -0.57813901801662
C         4.63557899825526   -1.04951551041803   -0.08035827541695
C         4.98397649223143    0.21907435290198    0.29718537971523
S         3.65338968784489    1.24477967767670    0.24067528655884
N         6.31086887670617    0.49566546864367    0.49643288125138
C         6.72937450171108    0.89675349210042    1.87238688813755
C         6.89810935373632   -0.43033205553557    2.64056541265121
C         7.76997467608376   -1.06972090566729    1.56290362394947
C         7.00166836215114   -0.84905057697186    0.24907928627457
C         5.86464479543511   -1.87469129773476   -0.05692868852175
C         8.83851306681646   -0.02978184519654    1.31710525180578
O         9.95640206384812   -0.21270146431839    0.85831197114609
C         8.19363694371227    1.29879556349163    1.63740551566112
H         0.81354692722514    1.18227843585687   -0.03646226187337
H         0.32317098372608   -0.40010390101406    0.15033069901582
H         0.78455862401783    0.11048654444184   -1.40859009725863
H         1.63286847921342   -2.33110570002220   -0.16601900488419
H         3.14079890638845   -3.11661589379144   -0.28065473563391
H         5.97260651908477    1.60447529177067    2.21971626897010
H         5.87447114951641   -0.80875736237006    2.72696564674054
H         7.33818722609237   -0.35361752413656    3.64117770014691
H         8.28636675190252   -2.02398680854151    1.64612518166866
H         7.72739000513126   -0.85203343574052   -0.57397068470869
H         5.91419688428976   -2.63667597396058    0.72791344777993
H         6.11650624543041   -2.33338785795263   -1.01928250494744
H         8.28258798892183    1.88071525388345    0.71828579988858
H         8.70448964593982    1.78876126875271    2.47049849156158
