30
 energy: -45.969680344182 gnorm: 0.131073358663 xtb: 6.4.1 (79825abcba525fcdf90b791dcacef51065a7a4e7)
C         1.07313119968293    0.12432689070147   -0.52311858887393
C         2.53530920659353   -0.05774365980424   -0.30710586005912
C         3.15777366681231   -1.24447099689881    0.04286916292400
N         2.64214787852385   -2.48806581444413    0.02629010676773
C         4.53214405379234   -1.01503040393932    0.23408397961193
C         4.86836587941220    0.30920395736342    0.31531528380088
S         3.60255716302955    1.30150793574169   -0.17334327032816
N         6.22779065356896    0.46330362637764    0.38647152054012
C         6.84658293773442    1.06316070890090    1.60570718212428
C         6.94472170048910   -0.16677414224189    2.53164173505018
C         7.79242522735590   -1.02136309546873    1.59281340861715
C         6.88495338440600   -0.92010387766287    0.35532974832020
C         5.69115180481973   -1.92663073609295    0.36732298775467
C         8.93788039754771   -0.08152657013465    1.29565326925320
O        10.09987288893424   -0.44327187967673    1.18366908564055
C         8.33561874702654    1.30431145651988    1.31323964673963
H         0.53230031596024   -0.27101704407808    0.34189557326365
H         0.73485709999358   -0.39058386639416   -1.42780752528951
H         0.79720068879350    1.18438688416187   -0.53127549263478
H         1.98513276005223   -2.76141804676558   -0.69767604093826
H         3.41958466056671   -3.12781962186697   -0.10611115480004
H         6.34669280319100    1.94602718470099    2.01173953703801
H         5.91939691122337   -0.53337231397241    2.64487046118157
H         7.30150458979080   -0.10278090697013    3.56575461132465
H         8.23981429474065   -1.97396360957765    1.86959004020264
H         7.45521987479594   -0.76805578233605   -0.56974839183447
H         5.66100959315610   -2.50837610455434    1.29453224694481
H         5.75298353163332   -2.62502719318812   -0.47433063467300
H         8.39342512686133    1.86269351410594    0.37718848865270
H         8.93228888508986    1.92244763946169    1.98923756979323
