30
 energy: -45.976964829953 gnorm: 0.126819876601 xtb: 6.4.1 (79825abcba525fcdf90b791dcacef51065a7a4e7)
C         1.10303769253563    0.22621788961997   -0.11659435105526
C         2.55544899131779   -0.08789672429213   -0.21462053780386
C         3.25070183236790   -1.28206643285601   -0.12055414063529
N         2.68855240787016   -2.50014859774904   -0.00681430780620
C         4.64451860865814   -1.11044357665653   -0.04360968131015
C         4.99352780769475    0.21285648332799   -0.06121129732756
S         3.65999640135075    1.23599036405375   -0.03636927319348
N         6.32509081890286    0.45390938921681    0.15251534946503
C         6.81461955720213    1.11311898563560    1.39954074192587
C         6.74313509551178   -0.00788674873836    2.45687790071442
C         7.65479721592921   -0.93723198474580    1.65968797119680
C         6.94519048794250   -0.93955403250155    0.29529166573692
C         5.80294368610077   -1.99994206537478    0.19910527401669
C         8.83599461233845   -0.01274594784156    1.47594177493709
O         9.95256954933781   -0.50905079782574    1.49978668204565
C         8.31642429340266    1.38270162436366    1.21836039902612
H         0.75480322752359   -0.44395788065941    0.67501259827793
H         0.64321856542346    0.02220141124906   -1.08868908322098
H         0.95139635097132    1.29561972478056    0.06593232639315
H         1.75054315269995   -2.45554189582497   -0.39238682063927
H         3.19738411665771   -3.30628669817029   -0.35674950612684
H         6.15847732637453    1.94929817967898    1.65348435627402
H         5.76260090565071   -0.46951426146587    2.61166365733064
H         7.22393878236905    0.17030929910566    3.42530579542987
H         7.84891927319945   -1.93599873832573    2.04568229370288
H         7.68556550221760   -1.15139344782311   -0.48641221587398
H         5.53356378010422   -2.51712624130358    1.12593223987439
H         6.09045827493355   -2.66941595814724   -0.61888107337474
H         8.60105746669353    1.65809184085536    0.20127237192531
H         8.71401754109410    2.00055545176847    2.02783988720956
