30
 energy: -45.978173718320 gnorm: 0.113987669398 xtb: 6.4.1 (79825abcba525fcdf90b791dcacef51065a7a4e7)
C         1.22645794344463    0.25452234551766   -0.19144526471007
C         2.66688237027391   -0.11647277530255   -0.11853579182158
C         3.27032089711228   -1.36100804186754   -0.04600852044014
N         2.62049269902267   -2.53628480734837    0.04949404001224
C         4.64804349920240   -1.08802198294133    0.02787722495904
C         5.03564572823359    0.22403762288536    0.06666361725591
S         3.72073620866920    1.25942146882625   -0.09056010903679
N         6.37534543345254    0.50258746747382    0.13344909452131
C         6.74344073970826    1.17093200766574    1.41683890569842
C         6.60572693525825   -0.03368529150621    2.37059873656128
C         7.57149966394395   -0.96237418702768    1.63906463447150
C         6.96347501611349   -0.90876286313478    0.22748529674106
C         5.83767157686930   -1.96927738331008    0.01236225262829
C         8.81183343124920   -0.10835153695879    1.51304145202018
O         9.98036530243427   -0.46616166331594    1.52452412417088
C         8.27367353855179    1.29470605291984    1.35370302340143
H         0.86850943457855    0.17787495870601    0.83959421614516
H         0.66851525350082   -0.48655813475246   -0.77241359312525
H         1.00100299167237    1.26031158202155   -0.56224096372772
H         1.62652277300918   -2.58265640157577    0.25046856708662
H         3.11628897841383   -3.34824058315689   -0.30566347359509
H         6.08378300661658    2.01431315190594    1.63539220600249
H         5.65830263938975   -0.57913539335692    2.42871307269590
H         6.88517299443893    0.22894338373948    3.39710479151059
H         7.70864861995182   -1.98814978349794    1.97549383262364
H         7.66907650603388   -0.92179268949191   -0.61278181185705
H         5.78357902038549   -2.71342160134113    0.81384625701839
H         5.97547629476945   -2.52835465564019   -0.91951974389852
H         8.64049558701398    1.75500390454111    0.43452331310768
H         8.71185754188696    1.93848930017243    2.12091791649587
