30
 energy: -45.977660257988 gnorm: 0.117327437549 xtb: 6.4.1 (79825abcba525fcdf90b791dcacef51065a7a4e7)
C         1.14380322887875    0.28781419600347   -0.27023156775210
C         2.57716649562012   -0.07411571604055   -0.09064262095768
C         3.22172242868598   -1.29779925064123   -0.01707262197379
N         2.60936749517587   -2.49372511085669   -0.10341874729298
C         4.61916894846961   -1.14520505420522    0.02717985592873
C         4.98069238812025    0.17237158748305   -0.05364626193148
S         3.69213266239874    1.25159715818820   -0.02890656070359
N         6.31759881211403    0.36127668352899    0.17839186413948
C         6.79703433437837    1.07818438605899    1.39718344769545
C         6.70012150994013   -0.01882442090451    2.47741737222594
C         7.64025714113089   -0.91133827936723    1.67126218797717
C         6.95280659539430   -1.02734051504651    0.30046694111696
C         5.79084789142468   -2.04837060714305    0.08657004533899
C         8.85028461938558   -0.03013785099293    1.46393709301678
O        10.03467619662738   -0.33142631757108    1.45565903617758
C         8.30210951704720    1.36678504371955    1.28593177985401
H         0.38179778548637   -0.43862682056605    0.02755280497255
H         0.91492169918652    0.32495925110709   -1.33993153160487
H         1.07992674328935    1.22115550647982    0.29961504000689
H         1.66180840217776   -2.57823043120415    0.25085220261320
H         3.16012496147091   -3.31863199350497    0.11433762075442
H         6.25115466823110    2.00386387740257    1.59552279881299
H         5.72539393589077   -0.51720314822012    2.48295702784750
H         7.05580748061453    0.16918295484249    3.49669129084319
H         7.96302261651731   -1.88975526507383    2.02159441290284
H         7.68786197088008   -1.12348460743605   -0.50857073624355
H         5.65458254696329   -2.77146984959657    0.89750313313931
H         5.89737077600379   -2.54013145971438   -0.88645910441595
H         8.76988160428033    1.65763410469078    0.34363672648368
H         8.68297925087841    2.02973911900386    2.06728376450291
