30
 energy: -45.982728551372 gnorm: 0.111695314275 xtb: 6.4.1 (79825abcba525fcdf90b791dcacef51065a7a4e7)
C         1.06348494957765    0.05442483727942   -0.06060798123010
C         2.53969223400268   -0.12651579720538   -0.13708168968072
C         3.26103643460241   -1.30295476906000   -0.01909800271371
N         2.68472502329919   -2.51947366044691   -0.04399393879865
C         4.64834294499905   -1.08237781746768   -0.08857095201708
C         4.98972940151608    0.23772233686227    0.02988217813551
S         3.61974432693650    1.20991601587188    0.09076253913917
N         6.34137756788910    0.44962989961061    0.10050831690114
C         6.90642842985764    1.21270916219833    1.25276504439759
C         6.70112032344010    0.19675145877065    2.39530794333479
C         7.54901047341725   -0.87190824613082    1.71020145334976
C         6.96796631792890   -0.93564509313771    0.28772133625325
C         5.82097270851554   -1.97243545681619    0.06892060351218
C         8.84037781924945   -0.11860543973565    1.48981623005902
O         9.91954011861654   -0.66999522700038    1.64794500191852
C         8.43649981499770    1.29450098728515    1.13826510569148
H         0.63633771971788   -0.23787215820204    0.90331736982883
H         0.57634574423755   -0.59890854306164   -0.79127576354318
H         0.80671504498404    1.09270735113758   -0.29718778469162
H         1.77645939819452   -2.38291492983675   -0.47633933907811
H         3.19723616552719   -3.19814791691583   -0.59893227859248
H         6.40687166345100    2.15282341012467    1.49941027459757
H         5.62827625451664    0.01613372091117    2.51732730383472
H         7.15097127361530    0.48799942295645    3.35112557740726
H         7.74157605555822   -1.80281858911322    2.23985648137267
H         7.78323931004074   -0.96892531759055   -0.44597780643781
H         5.70931712199726   -2.69607583528162    0.88312627065933
H         6.05135242612958   -2.49041657718391   -0.86840662503123
H         8.80464985987559    1.54835557875541    0.14260087468361
H         8.86461038263450    2.07463486362855    1.77324011487806
