30
 energy: -45.974552916525 gnorm: 0.127093995549 xtb: 6.4.1 (79825abcba525fcdf90b791dcacef51065a7a4e7)
C         1.15776257498890    0.29099203995157   -0.60127513880463
C         2.52513075122530   -0.11057148645807   -0.16904058142616
C         3.14798639958092   -1.34287353487532   -0.06064874224858
N         2.51434275136699   -2.53075562092370   -0.05041363786740
C         4.53014600776741   -1.21514668507938    0.16611264256390
C         4.99567314101168    0.06710425941993    0.05494934421553
S         3.72339725992492    1.14187334540051   -0.17289172957888
N         6.32395425797034    0.29326728929412    0.30266931903096
C         6.86845231394898    1.15789594752727    1.39134151776397
C         7.00007266266255    0.28512439531163    2.65651804938986
C         7.72036570835790   -0.81341737610253    1.87888955241139
C         6.89511122937186   -1.09410873050769    0.61188845183538
C         5.64934453069409   -2.03264469204623    0.68684140254802
C         8.84832172714063   -0.04968274646153    1.22460443052557
O         9.95156729776976   -0.42086873034141    0.85218417162454
C         8.33594543215487    1.35052231611068    0.97869444437128
H         0.94132130404658    0.22853380654037   -1.67192752031835
H         0.90015270340668    1.33777064394616   -0.41175934565710
H         0.41131702320195   -0.41787948319901   -0.22677337261417
H         1.57626763708776   -2.43609979102190    0.32584775508482
H         2.94029663606463   -3.28194611535727    0.48390753321451
H         6.28387162050554    2.07929134393172    1.45051555153048
H         6.08398856394747   -0.16612563065456    3.05106744681284
H         7.56035813353638    0.74780269647105    3.47675434818156
H         7.93552522857108   -1.70077227137000    2.47093489637250
H         7.48912808627501   -1.42239229693094   -0.25035625198947
H         5.40961662320019   -2.29135540148515    1.72349589249129
H         6.02449130025780   -2.94048024050092    0.20201038197649
H         8.47067305575602    1.68632097030292   -0.05106844090427
H         8.95676175511374    1.98758326532184    1.61416373831862
