30
 energy: -45.974213394771 gnorm: 0.121628121553 xtb: 6.4.1 (79825abcba525fcdf90b791dcacef51065a7a4e7)
C         1.17361752546631    0.23725058639847   -0.61386583402113
C         2.57123918504573   -0.03623488059819   -0.17839470942429
C         3.17841008320429   -1.27693853010092   -0.07708210582373
N         2.64626593759563   -2.50292285921424   -0.23974100346980
C         4.51880281104804   -1.11112698446813    0.31528748927433
C         4.95651768062680    0.18360676688497    0.24241455332030
S         3.69189416696659    1.26999574036169    0.02744382582464
N         6.30136387971478    0.42471837835851    0.34291081956496
C         6.81539732815043    1.06683115520396    1.58899620513999
C         6.99682301317699   -0.05499624144744    2.63221898130349
C         7.71270887207405   -0.97459040289736    1.64622902813650
C         6.87098949645987   -0.99721909899536    0.35932545360927
C         5.68860542912678   -2.01717307020735    0.36733621182342
C         8.83410546533054   -0.04240158275355    1.24979735840422
O        10.00158991657654   -0.30901089172771    1.00581743081310
C         8.28150329857833    1.36403706768001    1.23811089369834
H         0.59392484933261   -0.67642020962188   -0.45198177550137
H         1.09639845831026    0.43717034504709   -1.68722217322578
H         0.76275100542835    1.06861086463857   -0.03080480809048
H         1.66670212748936   -2.71995937000535   -0.39423110594660
H         3.03994686611594   -3.29431256278161    0.26019964639948
H         6.25421071373730    1.97652498295087    1.81644367221054
H         6.01155431444765   -0.44764214526278    2.90347655688022
H         7.66409163063828    0.23484246848756    3.45168509840896
H         7.88764658839374   -1.99587246275766    1.97877942429203
H         7.56033210126260   -1.16939809060625   -0.47688816966040
H         5.53138677170396   -2.65065258177368    1.24656270573199
H         5.63446451048150   -2.76996513686545   -0.42659983849795
H         8.58978589884849    1.89339949897867    0.33474987911069
H         8.58715750760720    1.94855156717173    2.10989015805075
