30
 energy: -45.980423490375 gnorm: 0.116082293100 xtb: 6.4.1 (79825abcba525fcdf90b791dcacef51065a7a4e7)
C         1.18772033974642    0.14891474476352   -0.15382515076674
C         2.63574849521519   -0.10627768627328    0.08253679896025
C         3.24760211613878   -1.33491029808523   -0.10283666721833
N         2.58576013802234   -2.50498404067431   -0.02823430541381
C         4.63434831321603   -1.11612001758238   -0.18748800639667
C         5.01517290187500    0.19091001745294   -0.04647239623569
S         3.72028482457664    1.24398444777756    0.15359053568988
N         6.35655522931133    0.41336746658144    0.12101420969599
C         6.78730594595818    1.16928575671114    1.33440176529390
C         6.69957981412522    0.04203174353632    2.38384364790419
C         7.61565456037481   -0.93668112125743    1.65360371361385
C         6.99324351221617   -0.97415048238551    0.24778547629389
C         5.80755199387775   -1.97716755414189    0.08501341279551
C         8.83598071342646   -0.07056477798508    1.44310205413812
O         9.99036882718588   -0.40609482219395    1.66318010213442
C         8.30827045401164    1.32020042064807    1.17688888016972
H         0.57062720213937   -0.03016957036036    0.73170815745530
H         0.85109869535487   -0.52123586226481   -0.95107576948251
H         1.04348389257749    1.13996610980118   -0.59760934049371
H         1.61233670847525   -2.33432994659822   -0.26027156062728
H         2.94539714620767   -3.13368182834757   -0.74000905356592
H         6.16959869883710    2.04050797215095    1.56595141186409
H         5.65857381627346   -0.29675670605137    2.38974161505306
H         6.96725073473038    0.19798408570935    3.43494295321665
H         7.71736534407164   -1.90800920009275    2.13358985909218
H         7.68905445764316   -1.12237874379057   -0.58765905795084
H         5.55733454434030   -2.50730898105071    1.00988882372267
H         6.01489507955552   -2.73510576507330   -0.67820353346424
H         8.67290063822351    1.66521820815991    0.20769776124801
H         8.73751171495664    1.98065851716437    1.93493098105631
