30
 energy: -45.972384770432 gnorm: 0.127669659166 xtb: 6.4.1 (79825abcba525fcdf90b791dcacef51065a7a4e7)
C         1.14115063927303    0.10680699631081   -0.48720407184982
C         2.57803011933532   -0.06789435076467   -0.13701484310817
C         3.18356749941008   -1.31010352851293   -0.04478081743815
N         2.59749691948682   -2.48816365919482   -0.33003244170375
C         4.51691987531459   -1.10995264156692    0.35548297542162
C         4.91295573923281    0.19937273301072    0.31006355383904
S         3.64437269028071    1.27985346499299    0.08873915798044
N         6.25448878848365    0.46471169068786    0.39209971297723
C         6.88698176051915    1.15639586038237    1.55433619736224
C         6.97284737483968    0.05757818010345    2.63366587368103
C         7.68234412181365   -0.92341406117567    1.70383214536124
C         6.90273111221185   -0.92317785051192    0.37818970591312
C         5.73225260048210   -1.95274791050195    0.28671344896841
C         8.89817338361060   -0.08743880671261    1.37738312110359
O        10.00488021232596   -0.50617046011959    1.07162100641728
C         8.35139023876363    1.29581001227302    1.11050055522958
H         0.49444059972756   -0.60951712921600    0.02824742414322
H         0.96749235027982    0.05370916150730   -1.56657793779101
H         0.76228855261777    1.09928281937024   -0.22002130882676
H         1.67484612291136   -2.59008807001414   -0.74093902414115
H         3.02182983188631   -3.40594875438007   -0.23603726190697
H         6.32797724753378    2.09495800802076    1.58298361312149
H         5.98499043434795   -0.34968596761513    2.87195239507577
H         7.46255832482558    0.35357632428131    3.56819617694994
H         7.94723613461627   -1.89413778878355    2.11824460192315
H         7.60994205558019   -1.15522669848831   -0.42809688699529
H         5.70022434509423   -2.60890452204116    1.16277618577143
H         5.71874518754177   -2.61811664415212   -0.58338056172474
H         8.53019027165462    1.56669392266421    0.06839867769554
H         8.89798342574653    2.11530598985451    1.58457123966040
