30
 energy: -45.971582836044 gnorm: 0.119748439245 xtb: 6.4.1 (79825abcba525fcdf90b791dcacef51065a7a4e7)
C         1.14475643918261    0.21381378041346   -0.08026984233508
C         2.60810796002505   -0.06077346175298   -0.11157263475241
C         3.21974933204332   -1.30108444383452   -0.18766317760424
N         2.61834989689284   -2.49055740295979   -0.37778333188760
C         4.61423944089049   -1.16689551478126   -0.06320154237082
C         5.01385852494136    0.14111005877405   -0.01156571420514
S         3.73782901815305    1.20687083394801    0.23668558128457
N         6.36320127179367    0.37499593139327    0.02607927925341
C         6.79203619389814    1.13321178719644    1.23871166594772
C         6.66811515797745    0.13796322723097    2.41082498168060
C         7.60328897341453   -0.85270532003333    1.72209576295955
C         6.92128751610439   -1.01361345251056    0.35311549931563
C         5.79087226021580   -2.05469383159522    0.07614014155552
C         8.86651600368379   -0.04916304600516    1.51656797973301
O        10.00332131056703   -0.47192593095010    1.66680749034853
C         8.31181269546508    1.28354010808221    1.06959823913752
H         0.70517459555427   -0.21030402259748    0.82743950632312
H         0.67314839613813   -0.20023185235757   -0.97702877810636
H         0.78876212032531    1.24976670975304   -0.08124238814159
H         1.62076307251290   -2.66344614994181   -0.30397748439557
H         3.17744598571625   -3.30818860083878   -0.15392227807404
H         6.33266405521640    2.11400160154151    1.38443126371965
H         5.65142086552360   -0.11075067253803    2.73172995007467
H         7.12519635454683    0.62492737192444    3.27957195481758
H         7.84154761058709   -1.79034972535383    2.22035855323669
H         7.69800780205213   -1.19193834170160   -0.40120398390975
H         5.62756429332246   -2.70276125766774    0.94354566767395
H         6.16815121991850   -2.69121156940455   -0.73161436943911
H         8.43523489393991    1.64794467610614    0.04817759190389
H         8.67369975538725    2.14670636837039    1.63445445518911
