30
 energy: -45.973246542689 gnorm: 0.129080705574 xtb: 6.4.1 (79825abcba525fcdf90b791dcacef51065a7a4e7)
C         1.11316482824300    0.18537286902616   -0.27838142139868
C         2.57082165104034   -0.06824965182662   -0.10900635989405
C         3.22212571248116   -1.28984852759807   -0.06698857203474
N         2.66073319169827   -2.51039994298633   -0.15511098359750
C         4.57845715819248   -1.11503353654966    0.26150005126883
C         4.97222385418041    0.19288243377482    0.17464458168347
S         3.67618102404731    1.25674197239205    0.05547275495237
N         6.32707787265764    0.38489401785676    0.24058211992451
C         6.81456358542202    1.11710791925007    1.44701838985254
C         6.73071327622817    0.00880038262713    2.51676101097787
C         7.67808646822166   -0.90017137824842    1.73793076788443
C         6.99674594447599   -0.98749773619281    0.36196798442467
C         5.78815427015965   -1.96830937634807    0.23660027909428
C         8.88119980349990   -0.07650803898710    1.34073888333807
O        10.03357829494766   -0.47286876332489    1.24827990303058
C         8.29996991823834    1.29703362593015    1.09757119752243
H         0.68383034182791   -0.50733862307393    0.45159601252878
H         0.77122168744839   -0.01825965988176   -1.29800547388703
H         0.85018493517938    1.22015805810799   -0.03344763768511
H         1.75103010818768   -2.45874966215365   -0.60264850441032
H         3.32297525928888   -3.13881253736731   -0.59980867074311
H         6.12848586767349    1.94287864983055    1.65099312116727
H         5.65392973782109   -0.16275743925731    2.61479678163350
H         7.18432907311756    0.35359253316915    3.45277900455988
H         7.91998619889807   -1.88183197548382    2.14046897894676
H         7.70561972233530   -1.17986267409019   -0.45325330877886
H         5.74625387997801   -2.70585622605806    1.04488379091132
H         5.72678315368787   -2.67237979125845   -0.60034657077337
H         8.41815852929362    1.76184667016026    0.11711000275468
H         8.73222768885012    2.04578712122310    1.76660199326222
