30
 energy: -45.977596646736 gnorm: 0.117580463785 xtb: 6.4.1 (79825abcba525fcdf90b791dcacef51065a7a4e7)
C         1.09632047422001    0.26105599424380   -0.18075506933693
C         2.55238347220969   -0.04187360000124   -0.10400914208114
C         3.22445989809378   -1.25286964433368   -0.09575238854076
N         2.67483059434331   -2.45613669166054   -0.34620983679038
C         4.62480481971378   -1.16268817087813   -0.00087629010279
C         5.00982812030646    0.14200190812091    0.15005789752372
S         3.73262382463454    1.22376617969628   -0.00570251107337
N         6.35946030188482    0.37116141027270    0.20320404103549
C         6.77373531612716    1.09075796054873    1.44410089728643
C         6.77581628523084   -0.01413193129478    2.52064153444720
C         7.64084661031827   -0.95416804661836    1.68495211164990
C         6.98676176165655   -1.02338187616053    0.29480577630108
C         5.79222229465782   -2.02899095752892    0.27969936862191
C         8.80759069015118   -0.02263778712446    1.45123430493609
O         9.95455083132294   -0.44300413805340    1.41380118471455
C         8.26713787893718    1.36820288574736    1.21238626071541
H         0.76317839875254    0.41803278157899    0.84949685243963
H         0.52540316486306   -0.57589892876918   -0.59498255866446
H         0.90157272479539    1.17061778007229   -0.75928946471046
H         1.66603973321137   -2.55100095067965   -0.40833122323152
H         3.35273848244435   -3.05510758604455   -0.80761827543588
H         6.17235978738343    1.96657665092765    1.70002026248725
H         5.80269266871900   -0.40781387004102    2.83136785406395
H         7.23977771480024    0.41805937262048    3.41435797220942
H         7.81141384454783   -1.94304831207725    2.10594220231507
H         7.67461836425657   -1.22955783862435   -0.53491515579897
H         5.70275565173622   -2.69022798438110    1.14792431379236
H         5.90155674275427   -2.72087808192305   -0.56250000091221
H         8.39492692928492    1.77328552644990    0.20695009645236
H         8.67007586634667    2.13133591459056    1.88346728530263
