30
 energy: -45.977298245985 gnorm: 0.127124300165 xtb: 6.4.1 (79825abcba525fcdf90b791dcacef51065a7a4e7)
C         1.18864431417083    0.23973868933450   -0.68373132263118
C         2.55713437050762   -0.12406119866645   -0.22258027982472
C         3.13168391574240   -1.36628921606335   -0.01038078349810
N         2.39220738521057   -2.48636006980438    0.09586706475599
C         4.47543923368948   -1.15472537088570    0.34691799515066
C         4.96393775700852    0.11421026106915    0.19067518651202
S         3.70241690229603    1.17446911221653   -0.14120182498553
N         6.32140826533007    0.29673147723642    0.21905540477001
C         6.88405058994505    1.13722377587441    1.31736060021169
C         6.87871644206071    0.14211946078736    2.49611617097895
C         7.77746259286227   -0.83882928979408    1.74757286649678
C         6.90078004747136   -1.09129469183485    0.50950448462080
C         5.64859067055566   -2.01886652827909    0.60967742108933
C         8.95514203403587   -0.00317349456666    1.30213497369340
O        10.11150549231270   -0.36122144965052    1.13405198807845
C         8.37493890629498    1.36390017008577    1.02276186151284
H         0.70171533314149   -0.52038947783746   -1.30191390631553
H         1.31008600928570    1.22560715241558   -1.14344841327373
H         0.54013036016270    0.35181883385089    0.19193930904362
H         1.64799230875831   -2.37229853835468    0.77678641834066
H         3.01205505819497   -3.24107212609111    0.37411434537888
H         6.26649105279517    2.03337942970239    1.41600586269328
H         5.87338243442874   -0.28164989557198    2.58682974478494
H         7.23893275588119    0.48306153361250    3.47324528916457
H         8.00605267122405   -1.77032746700877    2.26164264879346
H         7.55139034862452   -1.39559100481067   -0.32007495498393
H         5.56912387490400   -2.61691653533447    1.52350150326868
H         5.83208841079324   -2.74925916332968   -0.18582038853003
H         8.39336254619347    1.65818395023631   -0.02813370617047
H         8.81922174422949    2.21821485801237    1.54029442895396
