30
 energy: -45.974105058219 gnorm: 0.128210981191 xtb: 6.4.1 (79825abcba525fcdf90b791dcacef51065a7a4e7)
C         1.14700188714176    0.21098255205945   -0.31931060684433
C         2.60949093259989   -0.01517879081515   -0.15271967860534
C         3.17864398240569   -1.27541016922968   -0.07431074514796
N         2.50030620874607   -2.42461184658717   -0.25282195784922
C         4.57948626033675   -1.21225084675564    0.03409528644624
C         4.98423275701095    0.08826529574875    0.16855083433556
S         3.76226988822203    1.24252095026913    0.15349522003969
N         6.32733528534622    0.35220114691526    0.11146264349992
C         6.74596766040528    1.07487374925310    1.34910525049186
C         6.84310889735973    0.01907017260385    2.46962661666553
C         7.67111951587679   -0.97393578204150    1.65804805410385
C         6.97068210565422   -1.02653125994596    0.28993054010842
C         5.80012423011464   -2.04584917607834    0.11908671553297
C         8.81622290758570   -0.02231834888959    1.39953912175775
O        10.01456753803850   -0.25032275974163    1.47444444639193
C         8.24686092302096    1.36126765490396    1.18719010334904
H         0.67253600939661   -0.09278774077004    0.61858603446316
H         0.77491413105796   -0.39661383113322   -1.15021484793938
H         0.94223270239068    1.24912181052671   -0.60262638478863
H         1.48563622979132   -2.44089037084495   -0.22641860726257
H         2.91149689595198   -3.29963078835902    0.05780170546886
H         6.11186160037005    1.94087946445447    1.55440802286309
H         5.92120819346807   -0.49264860609154    2.76415822794546
H         7.13460231820971    0.36806119999474    3.46662985212539
H         7.99062401174238   -1.86053220992742    2.20217457538591
H         7.72581466204197   -1.16597723209024   -0.49392001924515
H         5.80432441406993   -2.83909898086385    0.87393130109907
H         6.11005891083192   -2.50815723605189   -0.82440326452458
H         8.52063253994997    1.85867605650990    0.25501101612629
H         8.59586663681304    1.95429064785396    2.03666024581436
