30
 energy: -45.977577911145 gnorm: 0.120572411838 xtb: 6.4.1 (79825abcba525fcdf90b791dcacef51065a7a4e7)
C         1.14866676837317    0.22349515027892   -0.42332738259134
C         2.58223739834182   -0.01606815481179   -0.09888884133403
C         3.20557348142995   -1.25057032274285   -0.02323966815859
N         2.52891529150325   -2.40956417441485    0.08418390000903
C         4.60853106404409   -1.15588101004561    0.00581202251292
C         5.02125534636672    0.14630327406049    0.09075328057658
S         3.75878854749411    1.25272987445254    0.00286808292649
N         6.36812881106481    0.35727774813421    0.22590966924087
C         6.76137959427789    1.02443231971865    1.50243878623019
C         6.79870442392575   -0.08790744184084    2.57063018230619
C         7.70590255870091   -0.93369288092442    1.68070843868910
C         6.97135507261700   -1.04665163135738    0.33430408112436
C         5.79735647902708   -2.03709470183590    0.05296409071665
C         8.84996270390383    0.01420355000863    1.40451443450855
O         9.98585121418114   -0.37347608015457    1.17410508071181
C         8.24701575473670    1.39976529176279    1.38873332308805
H         0.60928040848057    0.33049805035668    0.52253577074645
H         0.60955062163623   -0.54421003615562   -0.98724852465735
H         1.07220297494791    1.13610801004069   -1.02434520398008
H         1.57832913031314   -2.59081794674183   -0.22249233908609
H         3.06182850424325   -3.24736960784608   -0.12867414398594
H         6.17155002012855    1.91467351048363    1.73433816299122
H         5.83200596540602   -0.58580839359066    2.69749475518081
H         7.12821422152988    0.31972601551606    3.53293827276003
H         7.94579522241441   -1.92988240044781    2.04713437888029
H         7.69903859569384   -1.10620003960245   -0.48485569086459
H         5.57346889283973   -2.81231812030762    0.79320474751341
H         5.97267709117782   -2.42171603979664   -0.95762518965507
H         8.60586465530562    1.87339255842742    0.47318510107453
H         8.42646808084839    1.98659970089904    2.29344489104640
