30
 energy: -45.974288227826 gnorm: 0.118546389881 xtb: 6.4.1 (79825abcba525fcdf90b791dcacef51065a7a4e7)
C         0.99118815940089   -0.04357868758288   -0.05353976230093
C         2.47397192216423   -0.02203172343314    0.08307560522211
C         3.31765126097748   -0.73808764751581   -0.74983218239723
N         2.97340975009231   -1.46836485257717   -1.82726704083936
C         4.65014086269543   -0.40082552698196   -0.45179563596818
C         4.83588942978898    0.44367090714090    0.60913015754691
S         3.36087877228781    0.75853324605830    1.35137766141763
N         6.15222366288677    0.64570299809764    0.93052224546829
C         6.68505279906668    0.26376066549591    2.27196966603239
C         6.98733562691529   -1.23397247925998    2.05949314724630
C         7.87828283451207   -1.01893719005601    0.83871672510661
C         6.94085221030141   -0.20559491105792   -0.06948069169222
C         5.90704755693146   -1.06797721098804   -0.86064885986005
C         8.94555362502666   -0.18057296331097    1.50335412839829
O        10.15226583511733   -0.33113672186546    1.38168706058153
C         8.13161874166173    0.77697531159734    2.34251246940231
H         0.64377066152113   -0.29919666312965   -1.05902716205618
H         0.59314404113193    0.96003044415923    0.12633273755710
H         0.51409716843081   -0.73270307698080    0.65174254899679
H         2.08378994633553   -1.92399864342887   -1.64980792575805
H         3.74766547495953   -2.06206178117197   -2.10882522435940
H         5.99202325535538    0.44392604717171    3.09747322324286
H         6.17984247582822   -1.93044369383311    1.81172602405155
H         7.62619321797651   -1.61172813650348    2.86568186288419
H         8.28027205766881   -1.84533177673588    0.25589027397352
H         7.40946249090410    0.45681574051061   -0.80820160890816
H         5.85478303070593   -2.11343540752762   -0.53918531126841
H         6.08790473332738   -0.94904534603615   -1.93447728422808
H         8.22265634595547    1.68582745229602    1.74499777434237
H         8.63425484577896    0.85222946105960    3.31038361135611
