30
 energy: -45.983682273427 gnorm: 0.111746514761 xtb: 6.4.1 (79825abcba525fcdf90b791dcacef51065a7a4e7)
C         1.07684023507553    0.07985813677608   -0.00392531643697
C         2.56209717917247    0.00534509760932   -0.08288936311485
C         3.36005024670128   -1.01261299080054   -0.57816556979428
N         2.88858358931441   -2.09710303579853   -1.22180632292637
C         4.71990740312364   -0.77955278072520   -0.30508772702013
C         4.92261045248928    0.38604988973132    0.38304174309183
S         3.49879718726207    1.19749686215732    0.75725513882138
N         6.25018822432845    0.63295800994417    0.61416783034010
C         6.73635907198930    0.68948737956351    2.02473875709707
C         6.75201820407393   -0.80559401644946    2.40449151790251
C         7.72129072461178   -1.17074147334424    1.28310831411942
C         7.00322818328527   -0.57971347089235    0.05828323856905
C         5.95342680115476   -1.55901657619394   -0.55595193336898
C         8.86595061847056   -0.19233114107491    1.41011751135321
O        10.02721469181261   -0.19005504021628    1.02921431397224
C         8.22985044588417    1.04905856871370    1.99141224478865
H         0.59102657740537   -0.89265637377534    0.11954529361027
H         0.64341311768950    0.62896016975156   -0.84574026991510
H         0.85265741182144    0.56699414654323    0.95125630862934
H         1.89878533278771   -2.29413146827920   -1.11227779892168
H         3.41767041223121   -2.96207600665804   -1.16602207749793
H         6.06354100567458    1.24485874371845    2.68283003321797
H         5.79949918016175   -1.29078990903243    2.16827479156179
H         6.88368488259735   -0.99793643840561    3.47521411628713
H         7.97207914944090   -2.22590843768432    1.19401363617601
H         7.62830300467529   -0.20486131250536   -0.76199682545462
H         5.84433696810463   -2.53875572375531   -0.07922995751217
H         6.11640259386403   -1.70226064887958   -1.62967518317531
H         8.38375348350410    1.96354211230320    1.41577557768640
H         8.64574453024609    1.18806471836662    2.99280636547154
