30
 energy: -45.971771297233 gnorm: 0.134988058780 xtb: 6.4.1 (79825abcba525fcdf90b791dcacef51065a7a4e7)
C         1.09469942091785    0.21347542703584   -0.19633054641441
C         2.53345494606704   -0.08813495790129    0.04197471983574
C         3.19418997927440   -1.30537333040439    0.03685364526294
N         2.61373665865364   -2.49922797131715   -0.18777472602346
C         4.58892621445552   -1.14067667017201    0.11225839080236
C         4.97477046957800    0.17245314782464    0.10487230850991
S         3.66454411975214    1.22499379155600    0.07035913486481
N         6.32606083470595    0.38418563056425    0.18252100069667
C         6.84680972501720    1.16741050447246    1.34211031812591
C         6.79791467923099    0.08698296362485    2.44211547740329
C         7.63749026403174   -0.92539371218841    1.66717775383436
C         6.96857510555492   -1.00268770442937    0.28453444277914
C         5.77752130611463   -2.01206361105343    0.25365590133250
C         8.84389107278138   -0.03547894538592    1.47661757279741
O         9.97398055536625   -0.50002862756168    1.44982153634269
C         8.36120034138343    1.36368167550186    1.17176576850631
H         0.50520237747916   -0.66090974692591    0.09519676323008
H         0.92873299010054    0.46389600318615   -1.24883669700479
H         0.87235767915824    1.18493228021165    0.25838595523094
H         1.93934233339158   -2.56319897562104   -0.94382848734218
H         3.26843272928765   -3.21381844516200   -0.49101800959541
H         6.30270474787878    2.11228281744971    1.41540228921604
H         5.77620685515587   -0.27927769912973    2.58519634861067
H         7.19188997437002    0.34797566812964    3.43077359723414
H         7.71688972348002   -1.87990824180067    2.18371212434690
H         7.73805170275307   -1.17680525959833   -0.47814563450580
H         5.81489615799940   -2.65451044925507    1.13961211571599
H         5.75144425360171   -2.64706464568527   -0.63856338664176
H         8.45386312676946    1.39185074803362    0.08459329890598
H         8.91521602214917    2.20335330493007    1.59966641717876
