30
 energy: -45.976868079812 gnorm: 0.116041251999 xtb: 6.4.1 (79825abcba525fcdf90b791dcacef51065a7a4e7)
C         1.08521646457211    0.29499124403429   -0.10034841419667
C         2.53233532495396   -0.05642559150080   -0.11170282829893
C         3.20828035794970   -1.24520816099463   -0.33115808013314
N         2.72437373137675   -2.45186269214629   -0.68114679954401
C         4.56949223811113   -1.09499858403950   -0.01078431905400
C         4.92876989901681    0.19318716465041    0.28031241239996
S         3.61695715085022    1.24408192773758    0.25809604450476
N         6.27604097277862    0.40632231198897    0.40790426744635
C         6.80982762910140    1.02896107568220    1.65556639093529
C         6.86913549833090   -0.19438876243954    2.59344884479120
C         7.73382149878272   -1.00844962620956    1.63431110492433
C         6.94806153642411   -0.96700268838663    0.31295278382114
C         5.77323741579321   -1.95603951917422    0.03011573363989
C         8.86212974286407   -0.04423168762672    1.34993695185461
O         9.99747588513505   -0.38328386121825    1.05050509950549
C         8.30672809531393    1.35019216176895    1.52511270900958
H         0.58279661467951    0.86375337171592    0.68776853273023
H         0.46775791461213   -0.59622356524189   -0.25036716891490
H         0.91968370943061    0.85424008231366   -1.02758679249116
H         1.76398569716732   -2.61787268191565   -0.96507074070461
H         3.43476674224050   -3.09814920589819   -1.01111421815442
H         6.11524854041179    1.84117044462145    1.88378001327472
H         5.87655480208069   -0.65401530675890    2.63853640220424
H         7.31633630350160    0.09859760499633    3.54997852605300
H         8.11619407229509   -2.02382414291676    1.71807161175196
H         7.65195040929221   -0.93914157480613   -0.52838916183854
H         5.71642964461012   -2.72787156044821    0.80477786059504
H         5.93659923458694   -2.47907182089263   -0.91841561453922
H         8.51803086634506    2.09289753352250    0.75370896314660
H         8.81132608108060    1.73230181426710    2.41643412703589
