30
 energy: -45.975471795080 gnorm: 0.116645693092 xtb: 6.4.1 (79825abcba525fcdf90b791dcacef51065a7a4e7)
C         1.09602319111133   -0.22668270479684    0.36761018399621
C         2.54599811215988   -0.05330347610855    0.07556897630057
C         3.37551378584861   -0.61503599212242   -0.88079215231079
N         3.02683215953373   -1.25927467245212   -2.01041621379427
C         4.73404073927774   -0.48881463672841   -0.53936467810265
C         4.93143659152888    0.23934352509338    0.60259014575492
S         3.48657639213538    0.78690818999661    1.26461580830193
N         6.20191456557547    0.61817174394702    0.94787335193886
C         6.55234198426094    0.10604234151075    2.30588368998745
C         6.82187848961784   -1.37788502186216    1.98179204491001
C         7.81069539701028   -1.08769044165899    0.85558140719074
C         7.03818751978035   -0.14598200184342   -0.08332283040396
C         6.06425868169170   -0.87978291533773   -1.05872079769343
C         8.80233551003608   -0.19213301676782    1.56147882843938
O        10.00639626026124   -0.09862481707019    1.37407392257961
C         7.97030361500595    0.67138909993046    2.48105910472159
H         0.55745173495195    0.71072001985052    0.19949924218799
H         1.04916843674854   -0.39464297732384    1.44817415536293
H         0.71703668885718   -0.95968712808972   -0.35280991005401
H         2.02594450140238   -1.14548835028267   -2.13608979727281
H         3.26932196903110   -2.22562298806604   -2.20686624077157
H         5.76266873096506    0.38889318613799    3.00632439012169
H         5.88076622426022   -1.83002072469317    1.65257039351643
H         7.26413292877590   -1.96987401545283    2.79095126538809
H         8.26611839959224   -1.87529111252897    0.25851768576161
H         7.68751766686916    0.57521701780608   -0.59550872286424
H         6.01933592770111   -1.97154811896093   -0.98741926677799
H         6.26525639018561   -0.63452777645536   -2.10724901792266
H         7.92342295988527    1.71859441188728    2.17694217817646
H         8.40120598443892    0.62269496056731    3.48456934907153
