30
 energy: -45.974467443736 gnorm: 0.124988236985 xtb: 6.4.1 (79825abcba525fcdf90b791dcacef51065a7a4e7)
C         1.11724027817430    0.14700645441142   -0.09585172631841
C         2.59512411255408   -0.03627191828141   -0.08921178389877
C         3.20526312024228   -1.27810530723055   -0.02719176811893
N         2.59472974531733   -2.39599463751207   -0.46336296290390
C         4.59797010514429   -1.10844995853294    0.07121734595916
C         5.00172056721019    0.19828526569283    0.12287856494975
S         3.71549147871599    1.27843805333521    0.05497615952179
N         6.34156800173984    0.46740333861728    0.21895106555678
C         6.79106079185985    1.07817343472825    1.50510195502990
C         6.75645931616572   -0.11217171424346    2.48571753261287
C         7.63716659375256   -1.03400598348852    1.64613522969690
C         6.98392478134439   -0.92273206692093    0.25832485833360
C         5.82054128968940   -1.94327496613859    0.04991803409987
C         8.81235114402441   -0.09118221520683    1.52913523213627
O         9.98960059537803   -0.40495324651731    1.43291599473585
C         8.29244315251700    1.30357986175392    1.26854007719428
H         1.03489655463847    1.23617480479843   -0.15890867982076
H         0.61167678587534   -0.35596010845511    0.73448237014973
H         0.73991061060836   -0.26626459890181   -1.03753145938910
H         1.58544214680556   -2.39445957168275   -0.35448930546495
H         3.01207133787477   -3.32149576574019   -0.48564853952484
H         6.23935289082082    2.00136289801806    1.69886787598131
H         5.79236939983285   -0.51945879022687    2.80689312084881
H         7.33893391505058    0.04434706240115    3.40059665928837
H         7.74999212987441   -2.04663514846386    2.02831658748271
H         7.74610725986727   -0.92256900945647   -0.53108625126384
H         5.89078079812001   -2.78053004041500    0.75214562596439
H         5.91327879216118   -2.44228848759039   -0.92082747682325
H         8.45076006327835    1.66919510156838    0.25237812188162
H         8.63558783634394    2.14659983725276    1.87405624476133
