30
 energy: -45.976577985883 gnorm: 0.108005964736 xtb: 6.4.1 (79825abcba525fcdf90b791dcacef51065a7a4e7)
C         1.13532463484688   -0.13804121889104    0.16019951439613
C         2.61923026194912   -0.25943752802922    0.19279886584664
C         3.42118410063909   -0.83297483282986   -0.77992477190284
N         2.99899015602718   -1.45858720198250   -1.89483925816003
C         4.74380513609930   -0.40413562247099   -0.56809805134312
C         4.87465103954990    0.43076156463066    0.50850136095228
S         3.46095613560605    0.67701161573143    1.38403187118899
N         6.15464242750338    0.77607545815889    0.85379248884195
C         6.61402644924030    0.34844400201545    2.20854916332056
C         6.74205207372806   -1.18183853284993    2.06168000942085
C         7.70859758326851   -1.06356510724182    0.88604258812975
C         7.02147789318135   -0.07939210832607   -0.07541173378884
C         6.07069354401638   -0.88108218708780   -1.01971279501980
C         8.81600582355875   -0.23615802883664    1.49654148302138
O        10.01310088374558   -0.44037576763304    1.35911803104049
C         8.08854242019729    0.73954072490344    2.39230057213907
H         0.62027340790024   -0.51895654342336    1.04714377598257
H         0.77188805752180   -0.81849182037344   -0.61628316483828
H         0.82463143306872    0.88915212412427   -0.05951607210359
H         1.99374225802108   -1.34085901882542   -1.97315925538724
H         3.40595864293246   -2.29689854456107   -2.29836588097808
H         5.88801009275513    0.73290657577484    2.92917000956805
H         5.81395722188574   -1.71704162359857    1.83650566697848
H         7.18403793827873   -1.57754831907437    2.98300561020650
H         8.01039488642135   -2.01580557838393    0.45434073559064
H         7.58790117345723    0.71847023808309   -0.57207298411350
H         6.20915578767580   -1.96410695676827   -0.93641341333170
H         6.26436283189687   -0.64068780057556   -2.07074292497624
H         8.24162457065966    1.78213361902019    2.10788928484687
H         8.37696095283244    0.69076445787299    3.44563642028915
