30
 energy: -45.970177007518 gnorm: 0.129491345814 xtb: 6.4.1 (79825abcba525fcdf90b791dcacef51065a7a4e7)
C         1.12741097750097    0.25190923482925   -0.37074536119140
C         2.57520398322620   -0.04547204126209   -0.18843929141737
C         3.18893579447573   -1.28624542578409   -0.14282162402864
N         2.49800893043581   -2.44167525599060   -0.12624236034098
C         4.57212348177578   -1.17243789504028    0.08508128916524
C         4.95963266328165    0.13353645191183    0.21739872766725
S         3.75051418022306    1.22854580418137   -0.18844983582888
N         6.30607685153222    0.38196870891701    0.26446321362497
C         6.76238779683389    0.96393081291097    1.56152466811099
C         6.84212221901791   -0.20602325104349    2.56380988502471
C         7.78961840131849   -0.98405981069747    1.65428678492492
C         6.95139942085265   -1.00370431715199    0.36505157852804
C         5.76341846664114   -2.01658152341457    0.33065117823002
C         8.88608515609873    0.00266185354250    1.32594945613089
O        10.04160564021230   -0.12899036450543    0.95036087962280
C         8.24499401351169    1.36113696341720    1.49063986258008
H         0.59970722433881    0.19620671678084    0.58605678939067
H         0.65569184610193   -0.21743431512336   -1.23978058650035
H         1.14060687322820    1.29808366905296   -0.69520843157000
H         1.48773929659270   -2.42475169136133   -0.02833344196062
H         2.98607021200846   -3.31925572097963    0.02499158984426
H         6.10345552223163    1.76239081245545    1.91148968279292
H         5.85434786001819   -0.67801339092408    2.56955532004665
H         7.25617655224382    0.07128943915741    3.53973779412499
H         8.11685302341405   -1.88827346962599    2.16372292598801
H         7.58986422410771   -0.97707429423030   -0.52699415745520
H         5.64624624445073   -2.51302666243924    1.29960222342128
H         5.99460309757112   -2.77319652324539   -0.42700904091869
H         8.37101549933514    1.99648273702043    0.61213078412268
H         8.75664405990960    1.87699178831252    2.30745612919057
