30
 energy: -45.968024752147 gnorm: 0.122085800878 xtb: 6.4.1 (79825abcba525fcdf90b791dcacef51065a7a4e7)
C         1.09722538692851    0.06374486302447   -0.03806739346279
C         2.57218965315725    0.14642462225913   -0.22626979512967
C         3.26562421068833   -0.99254195081343   -0.60066253181987
N         2.78333340433029   -2.01966603406748   -1.32528972545347
C         4.65331428767518   -0.81876282673959   -0.45160846157572
C         4.90514450629601    0.21386400563419    0.41065810949594
S         3.55051561225549    1.12016478736636    0.82214992535170
N         6.20892988335996    0.49239595554683    0.72595046856235
C         6.69893556653081    0.62764049671557    2.12982772524066
C         6.82314724490088   -0.87713920333883    2.44595311659929
C         7.82969230544486   -1.18683288531973    1.34083817128194
C         7.02681791804965   -0.66208808403630    0.13869009087269
C         5.95863952960380   -1.49082912638345   -0.64270967776852
C         8.85580080496829   -0.08713745221155    1.48724750696235
O         9.97374359460134   -0.07442878256799    0.99361901753020
C         8.14718435889154    1.13148505909223    2.03167134817044
H         0.83956258984367    0.41775819017697    0.96459347323074
H         0.69968738717753   -0.95231126480797   -0.12534856383641
H         0.49604645367462    0.77424875870078   -0.61573466093740
H         1.78745315338781   -2.21525715385907   -1.34728818061991
H         3.37302525350410   -2.83527020161829   -1.46047978376710
H         5.99308089757468    1.18429171404685    2.75120863911509
H         5.81222913245277   -1.23716595162865    2.22931702075792
H         7.14122757166951   -1.14961411829659    3.45855418895986
H         8.36319851034226   -2.13386151834951    1.28870447614348
H         7.76414407800602   -0.16565301366146   -0.50473388806136
H         5.97462793885397   -2.50765272228448   -0.23667102746296
H         6.23481118103008   -1.57349236941910   -1.69952451761426
H         8.24793125683581    1.93717958880706    1.30226730567111
H         8.53611798990406    1.44564954908541    3.00384010374841
