30
 energy: -45.980591723518 gnorm: 0.122784092378 xtb: 6.4.1 (79825abcba525fcdf90b791dcacef51065a7a4e7)
C         1.15628849222512    0.19147537444177   -0.27575171749635
C         2.61181065267229   -0.08130519921182   -0.11820269459064
C         3.24647720596847   -1.31015122651953   -0.04470380000967
N         2.63355248018921   -2.50675378414617   -0.11638701878212
C         4.63460914695658   -1.10586567338160    0.05254421566468
C         5.00065480106655    0.21154433206053    0.11322146450712
S         3.69678599471277    1.26580139923212   -0.00591806907710
N         6.35285261679866    0.42385109794511    0.17094940701785
C         6.76719843061653    1.10970422186083    1.43078710393240
C         6.70526690698184   -0.02725011706267    2.47156809054979
C         7.63045256332069   -0.99725684565676    1.74119789765979
C         6.94424611800490   -0.97587328081853    0.36504825661047
C         5.80397930897871   -2.01207229897710    0.11110819297996
C         8.78484699922375   -0.08013422440419    1.40965006397089
O         9.96873833540603   -0.33353747392787    1.24287246259583
C         8.27058394849023    1.32488483057829    1.19744645050575
H         0.64388051230316   -0.33037727025135    0.53797566204516
H         0.83242766659814   -0.07707441272696   -1.28620691174241
H         0.99090552955580    1.26487497397486   -0.13294716506879
H         1.61892092508056   -2.52923217345255   -0.09326081882631
H         3.06346751792823   -3.30471555266484    0.34149185806372
H         6.21277487008982    2.04303484865980    1.55614291672207
H         5.70731715114675   -0.47521527658799    2.51549287351329
H         7.17171451466507    0.30339489954935    3.40638310106518
H         7.97347950811309   -1.96019402477082    2.11441971021241
H         7.71187907037578   -1.05692321968380   -0.41486366835199
H         5.68104249063695   -2.66942622344869    0.97818695800355
H         6.14872635688728   -2.62914774122816   -0.72574840940391
H         8.58764998575877    1.74830617867635    0.24271750635446
H         8.61960675780684    1.93603430839523    2.03396314218462
