30
 energy: -45.978614349527 gnorm: 0.122133356706 xtb: 6.4.1 (79825abcba525fcdf90b791dcacef51065a7a4e7)
C         1.12531599403642    0.18485794487025   -0.52431657157281
C         2.59131810439111   -0.03222189777705   -0.37772241244455
C         3.17710135858192   -1.23785813358523   -0.02905994073138
N         2.53957323550680   -2.42370414582671   -0.02908340376966
C         4.57193570605661   -1.14139619016885    0.12336144496725
C         4.95914082267752    0.17038224526442    0.17385694120837
S         3.69603755599277    1.25931657835817   -0.03713643045157
N         6.29738396976171    0.45578653898884    0.24090375210826
C         6.80109318894468    1.00337427726819    1.53538924024923
C         6.87042628183282   -0.17301772814664    2.53088937534574
C         7.74053646373647   -0.98894451265446    1.57826461942874
C         6.90754664624613   -0.94860141138393    0.28612500841602
C         5.76707140367996   -2.01184369667620    0.20106962630488
C         8.87625927757527   -0.01226727495311    1.37851565392327
O        10.04830108742377   -0.33086932626939    1.24273125887619
C         8.28710465950975    1.37849525015903    1.42596922259205
H         0.65313111101451    0.25033778078880    0.46046675418383
H         0.60095436378081   -0.64512463858374   -1.00825697636851
H         0.97112540296038    1.13695945980798   -1.04360390370940
H         1.52927378156751   -2.51149781568624    0.01679227218370
H         2.99398695623036   -3.18565875848812    0.46503836738268
H         6.17093172491680    1.85852180813628    1.79195278803012
H         5.91576867692870   -0.69674249600339    2.64423447560212
H         7.30705056584018    0.08610753094354    3.50196709504667
H         8.16782847434671   -1.92886538658947    1.92203824550709
H         7.52485632754842   -0.98640836757172   -0.62029180742415
H         5.86253665114377   -2.69448469061310    1.05191679153211
H         5.80217487022655   -2.44664666170534   -0.80375658250367
H         8.59806378853756    1.95772297908322    0.55469227085918
H         8.72156481289886    1.87816486141164    2.29582865828535
