30
 energy: -45.979138041639 gnorm: 0.121493777486 xtb: 6.4.1 (79825abcba525fcdf90b791dcacef51065a7a4e7)
C         1.14571939128394    0.08409427184265   -0.53231259750539
C         2.59587423421493   -0.04764888356772   -0.22011015712038
C         3.19337709910031   -1.29350995164488   -0.12478545529868
N         2.49777927013165   -2.43818434813116   -0.26093636754534
C         4.52197900153287   -1.10949323092706    0.29836332190884
C         4.92165945767332    0.19816117323651    0.23890091338847
S         3.65047599521087    1.28958967119936    0.10250989499113
N         6.27175858001968    0.40305365354402    0.34888757045349
C         6.85948654086559    1.02432511987009    1.57276077221461
C         6.92366846043822   -0.13272033680727    2.59102019157246
C         7.78498431892862   -0.95676167341308    1.63738868904850
C         6.90449118249866   -0.99176148775288    0.37697953517784
C         5.70664817320785   -1.99353114395016    0.38264077850506
C         8.92289082348377   -0.00049838537612    1.36463659986156
O        10.06064538099609   -0.30731444599021    1.04059162165908
C         8.32430431017242    1.38447875536931    1.28032814149615
H         0.58844889283800    0.15512447846908    0.40654238110969
H         0.81864902108782   -0.80525672578297   -1.08013035567019
H         0.98427199253254    1.03996037776914   -1.04239699273085
H         1.58013223151300   -2.29862083226744   -0.67198773296700
H         3.09437812435182   -3.18666093138884   -0.60016430441082
H         6.20801301752706    1.87310334545701    1.79493953101092
H         5.88692315034789   -0.45552465727471    2.73052797233229
H         7.49099524341472    0.09139919270665    3.50134395945675
H         8.09352176129362   -1.91772202878194    2.04429145777940
H         7.53079528815713   -1.07866328636389   -0.51983889926329
H         5.68537073805393   -2.49552739311683    1.35557462354623
H         5.71726611659966   -2.69979368479408   -0.45464177698261
H         8.54999112709698    1.68292916770164    0.25499079125392
H         8.75137782912466    2.14364918588820    1.94089551332735
