30
 energy: -45.977187055660 gnorm: 0.123828063357 xtb: 6.4.1 (79825abcba525fcdf90b791dcacef51065a7a4e7)
C         1.09444646459474    0.05579237405712   -0.09190861782415
C         2.57371174253798   -0.02834620728132   -0.24181068282965
C         3.22105244224052   -1.24768490765518   -0.13032335922095
N         2.59404300548085   -2.42344615192122   -0.32298249009568
C         4.61699998524193   -1.09163043661244   -0.05906670759651
C         4.95507457760363    0.22542633736410    0.09684129993119
S         3.67764489183648    1.30035956059732   -0.09916390031231
N         6.30885787599255    0.39488088100826    0.22094436403375
C         6.82089915018104    1.16633960531320    1.39223987545983
C         6.79101532312985    0.06802355923882    2.47507622943564
C         7.63235694274961   -0.93277594841721    1.68712521532475
C         6.95807872097898   -0.99000460012769    0.30611176648371
C         5.78412075300380   -1.99297330465824    0.07313358053319
C         8.89129099941693   -0.11287934391240    1.52427869624791
O        10.05006597144238   -0.44002550145965    1.73366501853573
C         8.34206482989289    1.25584382573467    1.19485053880477
H         0.75101657558703   -0.85249394025144    0.41219082702905
H         0.49776753146842    0.01966507404187   -1.00880206562498
H         0.80243660003163    0.91947284258354    0.51531263948751
H         1.68757350608093   -2.47400499486053    0.13119163632244
H         3.06418844402728   -3.26330174715051    0.00079031689010
H         6.26960536295076    2.10261410215330    1.50916231780226
H         5.81400068606943   -0.35868283344310    2.72381292102061
H         7.17491161896439    0.38667296789100    3.45071181339371
H         7.90708456730258   -1.93940370138483    1.99605128873842
H         7.64251413685736   -1.07369326598417   -0.54749026537430
H         5.65134948731269   -2.71705583305642    0.88376883784339
H         5.94364943088229   -2.52710653490837   -0.86984780090029
H         8.63574178789393    1.55054427993645    0.18577702483548
H         8.86807146019781    2.06611692794637    1.70656853761788
