30
 energy: -45.974999201242 gnorm: 0.118281738110 xtb: 6.4.1 (79825abcba525fcdf90b791dcacef51065a7a4e7)
C         1.11059788637729    0.15665335905859   -0.04472911899182
C         2.59136078937779   -0.00011724510665   -0.06796528733387
C         3.27360374411966   -1.20543161842749   -0.06266360388666
N         2.74832733375133   -2.43989625158799   -0.17604193845786
C         4.65516985912407   -1.09325496747149    0.17564609495089
C         5.01907684542112    0.21733320799213    0.02342719127713
S         3.73602004288931    1.30128684455153   -0.04392117074526
N         6.37583769561826    0.40410339980758    0.05752251847461
C         6.72994543539008    1.13452307084217    1.31066368852544
C         6.60445708322497    0.01987376433803    2.36968934451512
C         7.56967894081101   -0.95265197619617    1.69673866270673
C         7.01201149498136   -0.97409580026283    0.26367496738280
C         5.83368752602038   -1.98690884187221    0.10822490870281
C         8.80563792519281   -0.10118947145300    1.52043955788999
O         9.94983782143187   -0.53060407492707    1.51440901867970
C         8.25856931969077    1.28950869311381    1.29627452780017
H         0.74173722010203   -0.15727294111045    0.93630934177097
H         0.70786519553746   -0.46569460151274   -0.85003273744644
H         0.70669214670282    1.15779466033778   -0.23049140641426
H         1.82087984044287   -2.66035792055018   -0.52497617165015
H         3.27573740662627   -3.28718952326462    0.01145664800181
H         6.09833469275594    2.01527689736695    1.45047137619037
H         5.65045858829117   -0.50967991829554    2.45893986095351
H         6.90546882370726    0.32683756438207    3.37762969944154
H         7.75568280434504   -1.96965831276030    2.03631293976361
H         7.72987011689698   -1.04746432824251   -0.56299794950082
H         5.84903495339786   -2.71346142182554    0.92733359384050
H         5.94903849071379   -2.39739045349581   -0.90081452908942
H         8.64497635671134    1.57795795844097    0.31708583842209
H         8.68481874748097    1.96214166103206    2.04524522005393
