30
 energy: -45.976075856294 gnorm: 0.120653045450 xtb: 6.4.1 (79825abcba525fcdf90b791dcacef51065a7a4e7)
C         1.16122886414810    0.22807834784526   -0.10678774060460
C         2.61411674784244   -0.08739986788427   -0.19261312006623
C         3.22645716673151   -1.32969833872639   -0.19249471938459
N         2.62511007301627   -2.52193562229374   -0.02037607774098
C         4.60301147915038   -1.09490085694840   -0.02495836052627
C         4.99201126137878    0.21731766883997   -0.02637290034066
S         3.67670383201218    1.26185680429420    0.04167440324613
N         6.34724637860452    0.39701993184108    0.06245563222332
C         6.77576148523169    1.04037618382645    1.33984967297824
C         6.71496685834577   -0.05548706778993    2.42387619371521
C         7.63960708142719   -0.94991142642433    1.60206861268035
C         6.96474192345830   -0.99590385050158    0.22092195088479
C         5.76945769100279   -1.99546344860507    0.11806970104565
C         8.82548562995474   -0.02660678945204    1.44438219715601
O        10.00549427645149   -0.34007850678615    1.49862011930380
C         8.27503762593233    1.37072977762849    1.27695184494871
H         0.94753367730542    0.37005310094267    0.95680142189337
H         0.50538810183113   -0.47667865627886   -0.62757079094164
H         1.01465900196472    1.24355038879962   -0.49053919353788
H         1.65709863633552   -2.60990102242176   -0.31317846994062
H         3.29343204502421   -3.28178209390663   -0.10524106975799
H         6.23011238813958    1.93011382916357    1.66363913413665
H         5.72253073640053   -0.50849937477040    2.51528889468288
H         7.05944692778213    0.21211098152803    3.42911416081143
H         8.03315927613156   -1.85647483522505    2.05755678718193
H         7.76769532353726   -1.21352476422292   -0.49461912958478
H         5.67920143188427   -2.67171125373721    0.97457186352892
H         5.88721176791051   -2.63866546786688   -0.76078565281522
H         8.72767994233559    1.85443864887572    0.40950471023869
H         8.48537927573580    1.89472115962897    2.21304489899508
