30
 energy: -45.974933332359 gnorm: 0.114931361379 xtb: 6.4.1 (79825abcba525fcdf90b791dcacef51065a7a4e7)
C         1.10362208073938   -0.24994810333818    0.30688342808982
C         2.59005217092013   -0.24634083466703    0.21584341390074
C         3.41450791862975   -0.70947574489770   -0.79610770890308
N         3.02361069942253   -1.58687330313549   -1.73953008798445
C         4.75885940136172   -0.36049990020757   -0.57466918521881
C         4.90219884287301    0.35643899147964    0.58234970235478
S         3.44141422854390    0.85664629487349    1.24689994144552
N         6.18618762816851    0.73735472575657    0.87065789817278
C         6.57460645482907    0.20876982092313    2.21192476131590
C         6.76426931288777   -1.30866907385724    2.00911217271782
C         7.76246906935495   -1.10124766186695    0.87293622778944
C         7.04655253729266   -0.11616497290793   -0.06631879462070
C         6.08200532095327   -0.61985274254942   -1.18629632395597
C         8.78019195603687   -0.19695914328420    1.52880724113870
O         9.97078075507926   -0.46377482090652    1.45856211043003
C         8.00509278578267    0.71688814827266    2.44950252742885
H         0.73776561200613    0.77177082439542    0.44574973364341
H         0.79284139549399   -1.01021515749566    1.03037074336703
H         0.66043583621516   -0.57251031415375   -0.64152099182089
H         2.05555712428961   -1.89246885478357   -1.74049405722681
H         3.53820060625635   -1.69307149686309   -2.60851925215731
H         5.74219963535244    0.47911398201503    2.86630885681492
H         5.82858103182072   -1.72755571164250    1.62501932983014
H         7.12995231419621   -1.88829603049241    2.86414850921843
H         8.25918609901144   -1.98373454876708    0.47456566363602
H         7.86782809443556    0.46526906171336   -0.50396360533310
H         6.28864241363377   -1.69085485921234   -1.28277852484835
H         6.23262318396881   -0.16925182121109   -2.17332959056126
H         8.08639429222503    1.79137103122770    2.27571971225755
H         8.31562370792480    0.48960698428931    3.47273006866818
