30
 energy: -45.978588742484 gnorm: 0.127302175885 xtb: 6.4.1 (79825abcba525fcdf90b791dcacef51065a7a4e7)
C         1.06088284736140    0.01171078502586    0.15370566458157
C         2.54476235839965   -0.09488704538211    0.08651788700966
C         3.35096959089909   -1.02452132870029   -0.54915205694201
N         3.00025709532906   -1.94934798701786   -1.46259021690297
C         4.70040146714566   -0.72069863676156   -0.29454368899178
C         4.90704654173393    0.38403518537784    0.48654610699977
S         3.46190329448465    1.16100647357572    0.85206311050448
N         6.24355164126126    0.60108647247734    0.69508503522790
C         6.68554860175851    0.57091991134505    2.12091695611224
C         6.84823336906596   -0.92878400021394    2.44363602009491
C         7.72746526623486   -1.19646957578177    1.22477676737960
C         7.00609479377312   -0.54940727628480    0.03059947740515
C         5.93600336184806   -1.44411909079349   -0.67139586103407
C         8.81916219477120   -0.17831495450362    1.45977329432767
O         9.89092987818283   -0.26006195474176    0.87817366085145
C         8.16483445547781    0.98337492046241    2.17104486804176
H         0.72249010510592   -0.84519660445831   -0.43641673372480
H         0.71623852792848    0.91757742070939   -0.35487122575346
H         0.73809342432741   -0.04037078732486    1.19918443790425
H         2.04253802329387   -1.98370732339518   -1.79741988098735
H         3.53832288237597   -1.88476636688290   -2.32139019589166
H         5.95265676934762    1.10900594649788    2.72716658258944
H         5.85519328129848   -1.38735939158552    2.39796456245630
H         7.28664160167844   -1.15150807909762    3.42290657018546
H         8.16288718854551   -2.16311518129227    0.97939127359596
H         7.75452862414007   -0.21137843106212   -0.69718851319505
H         6.00099046028978   -2.47808091131975   -0.31677935474392
H         6.11357712154111   -1.43476299273756   -1.75229438169172
H         8.26928262292998    1.94480762438507    1.66501956744513
H         8.51760217255765    1.15163493850396    3.19198771077202
