30
 energy: -45.977703297449 gnorm: 0.111375914088 xtb: 6.4.1 (79825abcba525fcdf90b791dcacef51065a7a4e7)
C         1.16463076642548    0.25691952796019   -0.40482361061956
C         2.55711289327090   -0.14120775564608   -0.05803277548231
C         3.25397028672003   -1.33214445946250   -0.17772325709322
N         2.57976697416935   -2.49479270684900   -0.25754695175898
C         4.63860900653230   -1.12082582336030   -0.05036510686968
C         4.99158908935799    0.19091688464634    0.11689636712316
S         3.64414938542240    1.19589753327481    0.12898758675864
N         6.33832204678490    0.42690862578197    0.20328998124401
C         6.81103172955470    1.07534823664704    1.46239268532887
C         6.78625714675496   -0.09307531258757    2.46931789455661
C         7.70181747646590   -0.95284994492972    1.60164339571668
C         6.93660616808004   -0.98182275159276    0.26795055089664
C         5.77141993513444   -2.02139566364935    0.26233301952611
C         8.85569757586926    0.01140964451421    1.45188176891548
O        10.02227547995150   -0.31657183511346    1.29329168380088
C         8.30135467680653    1.40804495895913    1.29160340324433
H         0.42231908702757   -0.10552618340254    0.31256808874934
H         0.88402635570158   -0.05749717104729   -1.41498588747225
H         1.13852872720100    1.35145666427009   -0.44001602210684
H         1.64658170785268   -2.40485972423837    0.13180456135524
H         2.99128574633335   -3.35186583584349    0.09924561884286
H         6.18899366261196    1.95501951220566    1.64529352243359
H         5.77996447720877   -0.49549936755267    2.62402998122137
H         7.16257032518408    0.06757954428835    3.48585958671584
H         8.13687536567029   -1.87723814066114    1.97639813363654
H         7.52806193999072   -1.10612377009160   -0.64792137267687
H         5.65573894247684   -2.37113670351531    1.29352278997431
H         6.00598170419655   -2.79836509400265   -0.47337131834358
H         8.59584393573878    1.56160182010869    0.25188217425915
H         8.63242639135603    2.18071511047622    1.99049762990120
