30
 energy: -45.983801150409 gnorm: 0.114919149058 xtb: 6.4.1 (79825abcba525fcdf90b791dcacef51065a7a4e7)
C         1.12423575406848    0.24480771249312   -0.10487315148389
C         2.58055129530885   -0.04287764793614    0.01411372966091
C         3.29342114449187   -1.11173695152969   -0.50320885026264
N         2.65512579298636   -2.20473297691135   -0.96213327067067
C         4.65903321820835   -0.93448025095332   -0.21723019123755
C         4.92102365366319    0.24200919702879    0.43120937294578
S         3.55893045564021    1.15966797582131    0.78944189367526
N         6.23988579287312    0.59439861605260    0.54640471262676
C         6.66900187795285    0.58687896872184    1.97646444025154
C         6.90011002753162   -0.88485847838315    2.37684383045117
C         7.82371988220667   -1.08536772380914    1.17806818395343
C         6.98652747422472   -0.61573571140203   -0.02346376354766
C         5.92169614338406   -1.65590101536340   -0.49526111240801
C         8.86207466357618   -0.01247210289621    1.41126063672011
O        10.07122708890996   -0.16495079482638    1.32000641152239
C         8.08605201931252    1.17858716969727    1.92384435720326
H         0.72374253622150   -0.05931449996948   -1.07655171778809
H         1.07427914875464    1.33711925578524   -0.05604338002249
H         0.51172986012484   -0.10945567208376    0.73134772610268
H         1.82917008000169   -1.93876673656215   -1.48898847409835
H         3.15179320080587   -2.88803500056180   -1.52573137365067
H         5.95790778405201    1.21691708801912    2.51646701481544
H         6.03521670191557   -1.55597207072654    2.36836039828429
H         7.41707194200080   -0.99708801560438    3.33649663867187
H         8.21409315685897   -2.05044640693888    0.86114255018221
H         7.53176725619063   -0.21752684388749   -0.88846973603159
H         5.98718233213717   -2.60336731133751    0.04978238407672
H         6.17754942137936   -1.86870910062872   -1.53891499086412
H         8.12404116403689    2.06483062323274    1.28787797984961
H         8.42959090759374    1.47228735261995    2.91923474139218
