30
 energy: -45.980835974440 gnorm: 0.111947718425 xtb: 6.4.1 (79825abcba525fcdf90b791dcacef51065a7a4e7)
C         1.06364524772285    0.18085188066157    0.00424763505721
C         2.53604054277477   -0.04143448908655    0.02465737061239
C         3.27648039148364   -1.08551145067819   -0.50441578305098
N         2.77915261446352   -2.15582750253624   -1.15230582882069
C         4.64836583186935   -0.88209329473305   -0.27063931697329
C         4.91814949590585    0.33305116971519    0.29846609097651
S         3.53910929368375    1.23277824641715    0.63679338266124
N         6.23602445829408    0.55524214238143    0.59960121999312
C         6.63739359684298    0.61132464420428    2.03662090004731
C         6.90032242599573   -0.86626078340379    2.39346187490142
C         7.83365662402262   -1.15317950314779    1.22005355075850
C         7.04982352902956   -0.60408573663363    0.01621548321907
C         5.93887692009428   -1.56743397969590   -0.50929394335215
C         8.84734005918858   -0.05313608326764    1.43456404530341
O        10.05597222965768   -0.17927818894230    1.30447515949992
C         8.07518748241814    1.14422781239795    1.93822613983356
H         0.77146687254626    0.89683797167219   -0.76972916446190
H         0.66831939571065    0.52613101961384    0.96472892526789
H         0.58102534046821   -0.75885904613479   -0.28549840088035
H         1.78194721737607   -2.30483586946468   -1.27018371912492
H         3.26109985264668   -3.04953216154320   -1.16785676285922
H         5.87656121587849    1.16908322611155    2.58820505368648
H         6.00324436567988   -1.48654233188604    2.48837046954888
H         7.55059349144390   -0.88049173070919    3.27534827530570
H         8.16873611603141   -2.18584729720205    1.29441066072263
H         7.77910148821672   -0.18862866837587   -0.69063750102333
H         6.01711105444959   -2.47240838875986    0.10222381446336
H         6.08290727957495   -1.82082027670689   -1.56523533902115
H         8.10380330982644    1.91509498178721    1.16604170051958
H         8.62511464615751    1.55770501624142    2.78775394958215
