30
 energy: -45.985425487009 gnorm: 0.118202248825 xtb: 6.4.1 (79825abcba525fcdf90b791dcacef51065a7a4e7)
C         1.10343018540794    0.15247375750014   -0.20143826166889
C         2.57442192349721   -0.07209011725798   -0.14202383550514
C         3.20700788292435   -1.30410095827763   -0.15785338999568
N         2.60850872033621   -2.50953299256421   -0.19534001349990
C         4.59899731967921   -1.13043639009741   -0.05633455495230
C         4.97837507607338    0.16817364879213    0.15084833872507
S         3.69059599506399    1.24229148113792    0.03413512642664
N         6.32844988597104    0.39923918618373    0.17827711139434
C         6.83422462433238    1.14394925274465    1.36943907406876
C         6.76132822020345    0.07187979283581    2.47627191345202
C         7.66182531803208   -0.89395328109712    1.71037791049680
C         6.94850936644652   -0.99080287035363    0.35136176231366
C         5.75557818669424   -1.99516040792593    0.27022299155158
C         8.88057660200192   -0.03837905904395    1.45288529611878
O        10.01448115132855   -0.48678408358904    1.37030151273190
C         8.34464778732302    1.34660780056798    1.17330147679051
H         0.70490743391800   -0.34957600895852    0.68522402817275
H         0.52500024391432   -0.21276252060951   -1.05586543501574
H         0.99672498080603    1.22584157149532   -0.01057994015823
H         1.62963879068897   -2.55358735012637   -0.46065146235127
H         3.06352435434506   -3.27577243117261   -0.68222899713068
H         6.32141509120414    2.10508668562136    1.45573416950431
H         5.71622768035267   -0.14246252973683    2.72188974262628
H         7.22565498230933    0.34740752575329    3.42982512606295
H         7.88438815358679   -1.85597443074044    2.16775205752312
H         7.65169975204578   -1.07087942532706   -0.48721028770853
H         5.54604011058566   -2.53229708777644    1.20115328446633
H         6.03824174584552   -2.81710195735131   -0.39646659264035
H         8.68049941322837    1.62496887293652    0.17278027897709
H         8.74185945794939    2.03583829550884    1.92314479136108
