30
 energy: -45.974908806005 gnorm: 0.129374296378 xtb: 6.4.1 (79825abcba525fcdf90b791dcacef51065a7a4e7)
C         1.04361877793559   -0.06442362958806    0.20720768868527
C         2.52823895884927   -0.10583785438673    0.09782989119951
C         3.36688505406504   -0.64588806320887   -0.86304721018231
N         3.01491606445807   -1.40352420248693   -1.91887778430371
C         4.71064261660135   -0.42892549592651   -0.50900919316935
C         4.92285037015673    0.28439963269933    0.63963148468918
S         3.44633206702271    0.70494531028643    1.32429278669002
N         6.23615621683555    0.61728963023876    0.84275121133263
C         6.63757745164377    0.19903657454763    2.21868484345089
C         6.80665996727000   -1.32763379711024    2.07580578891780
C         7.82573656598518   -1.13739198512055    0.95526435125438
C         7.07100638208461   -0.28096968189872   -0.07529257295213
C         6.01071026199748   -0.89159729850596   -1.04550307657869
C         8.83086932845051   -0.16610316061707    1.52969497284532
O        10.04337944194829   -0.11511082496585    1.38531463710065
C         8.04906453361668    0.77183529123440    2.41999162630512
H         0.56862820906567   -0.47005487553691    1.10547916073453
H         0.62866328037832   -0.73347871420207   -0.55318809828103
H         0.63463915587196    0.90712488354410   -0.09071936522692
H         2.04087865744531   -1.63437442280620   -1.75012771750499
H         3.61807032492288   -2.18482985446365   -2.15760231876370
H         5.83935851231175    0.65021158929498    2.81323782967177
H         5.87772155878917   -1.77417908489698    1.70678461606384
H         7.13555183362946   -1.75430580967569    3.03003832707830
H         8.21043120111143   -2.05523357028820    0.51505203644346
H         7.75973640436055    0.33971026626938   -0.66223329973509
H         6.09676308912521   -1.97702886410535   -1.16163432094155
H         6.03026102998114   -0.44681976382975   -2.04637884272825
H         8.12862781604186    1.78397557685326    2.01928525771681
H         8.43381655343056    0.81807797460518    3.44219917901817
