30
 energy: -45.974997425800 gnorm: 0.119372041517 xtb: 6.4.1 (79825abcba525fcdf90b791dcacef51065a7a4e7)
C         1.04125255843646    0.01565107704504    0.02315054857577
C         2.52057108664601   -0.14878303580308    0.07166671870987
C         3.36192269107173   -0.79649093336753   -0.81764101203614
N         2.98368134951731   -1.40448980497268   -1.95779176324509
C         4.70492429685472   -0.55843645568631   -0.47445476098577
C         4.87589356868636    0.35712305657731    0.52842138288781
S         3.42621229489158    0.60651422748412    1.34202712584021
N         6.15895485413137    0.67246467518865    0.89058021926228
C         6.66410207605569    0.34280517924164    2.25638360891494
C         6.87819703110683   -1.18489241093751    2.26178487645393
C         7.75683500263944   -1.11677490938939    1.01531887360238
C         6.99928640665614   -0.24657028581684   -0.00153333789218
C         6.03089024561629   -0.90111155474051   -1.03699795176107
C         8.83514773149985   -0.18886704268359    1.52511592814275
O        10.02764750038776   -0.36625755356035    1.32485714055524
C         8.09967246588463    0.88976887612068    2.28616526737818
H         0.54317306853838   -0.90569065685182   -0.29322044270763
H         0.74747209332401    0.85590470544116   -0.61378854040011
H         0.68897277294999    0.05164875581560    1.05974810166339
H         2.01393482940665   -1.62865644662059   -1.75814638122280
H         3.41997920147871   -2.30838061311151   -2.11222159610589
H         6.03576833468578    0.68870493645069    3.08085659014667
H         5.96111677558871   -1.77483072526291    2.16461245788002
H         7.34307472298819   -1.56441601164040    3.17864319276701
H         8.20133935889754   -2.00653545024080    0.57378509639138
H         7.70159447140172    0.32099471133222   -0.62501181503289
H         6.20931189121653   -1.96309130777416   -1.23553752200423
H         6.18298490034365   -0.39955230200581   -1.99890601432323
H         8.19237337512358    1.75490988040892    1.62718009928320
H         8.47155900433698    1.18010179436388    3.27231332100970
