30
 energy: -45.980053270032 gnorm: 0.108434509481 xtb: 6.4.1 (79825abcba525fcdf90b791dcacef51065a7a4e7)
C         1.19966428905785    0.33732534882833   -0.25289600307013
C         2.62018989742116   -0.03170396823253   -0.00050731103813
C         3.20575908456619   -1.28623632447666   -0.03954026517981
N         2.62112796176080   -2.49474331423334   -0.14147250845692
C         4.59556011134637   -1.15390283068409    0.13087389442857
C         5.03600791170635    0.14144718192796    0.09462008294291
S         3.78593654767793    1.24627864036891   -0.11128056242633
N         6.38412684295103    0.35577259956233    0.21074743952868
C         6.72281037777181    1.01629397915653    1.50622918488228
C         6.73897189620621   -0.13244785573791    2.53572262648221
C         7.72602459024126   -0.91337842829059    1.67189591261146
C         6.92302564827969   -1.06936050912080    0.36959538427516
C         5.73716424360761   -2.08247375942363    0.29385484061058
C         8.82804970119878    0.05803263465857    1.31754356463014
O        10.01197858470029   -0.22343266375735    1.20477673829944
C         8.18946817421153    1.42756512292424    1.30451273679973
H         0.50499568409008   -0.28398831015217    0.32020890741595
H         0.89298559511027    0.20785413584752   -1.29558958599003
H         0.97036396729786    1.34082685396499    0.12172041265087
H         1.61313312288818   -2.50951324750382   -0.26082720121790
H         3.08746392947028   -3.24991839875773   -0.63489357162741
H         6.00668827995618    1.81172230137511    1.72683867783349
H         5.80114931013668   -0.69688424669338    2.51556714751238
H         7.00887396912541    0.13546360250300    3.56341661009813
H         8.09430791680710   -1.85534355262826    2.07349162088149
H         7.63548373815810   -1.30288929031500   -0.43162857437656
H         5.63675323784932   -2.80031425467629    1.11463245298309
H         6.00244142693090   -2.76407482716800   -0.52162636322209
H         8.22889884336104    1.81264311400028    0.28398148820180
H         8.62789177062094    2.13963048820432    2.00866360712807
