30
 energy: -45.977833580025 gnorm: 0.123195665992 xtb: 6.4.1 (79825abcba525fcdf90b791dcacef51065a7a4e7)
C         1.10503657369461    0.20254386940336   -0.37987134062752
C         2.55844407737349   -0.05406256660919   -0.18103602915000
C         3.19791810185304   -1.28251279153531   -0.16524629811780
N         2.60475301853687   -2.48600856310055   -0.27671828201958
C         4.57740038073386   -1.13600182509689    0.06640699292620
C         4.96098732397999    0.16801177884973    0.22656272377083
S         3.66809392545218    1.23869060423701    0.13824751742823
N         6.30420239034388    0.41623050085993    0.33147400386017
C         6.84615372239672    1.09835909704636    1.54401568525403
C         6.86992403580751   -0.01624576046702    2.61023176659302
C         7.71307008058746   -0.94965218848343    1.74525814807047
C         6.93915189026450   -0.97526280770525    0.41652976695183
C         5.75821565558971   -1.99236706191195    0.32014040067801
C         8.85515013050818   -0.04044278198355    1.35454623473572
O        10.00398163740686   -0.41052344296182    1.16257450365954
C         8.28914143385474    1.33158942517544    1.07040334199517
H         0.38304952287957   -0.11602844305792    0.37794840109816
H         0.86079065153506   -0.38143711003077   -1.27280732156839
H         0.85725246866062    1.26363586682639   -0.49220203900920
H         1.93844707698749   -2.40321884373748   -1.03809830311052
H         3.13363509426843   -3.34924151658332   -0.35631482539718
H         6.29323053481840    1.99675867450196    1.82925203608846
H         5.86581262595443   -0.38237333843501    2.84733250606029
H         7.35215358429269    0.33005671779662    3.53126806291510
H         7.99928146477193   -1.93538929092812    2.10666571077429
H         7.50628235050126   -1.15597532621966   -0.50531516732372
H         5.72651326906540   -2.32404861706234    1.36322981911799
H         5.93611240655570   -2.81441838459506   -0.38167579258582
H         8.35942006615640    1.60267742037849    0.01546444326614
H         8.76920580014611    2.09258654879777    1.69129170903795
