30
 energy: -45.971941101814 gnorm: 0.122399758214 xtb: 6.4.1 (79825abcba525fcdf90b791dcacef51065a7a4e7)
C         1.15319491565190    0.30299534071472   -0.47068108099498
C         2.55661856148134   -0.06466000587582   -0.13451543187545
C         3.19920775238483   -1.28538705995940   -0.01134520034187
N         2.66831657012305   -2.50473428850762   -0.22115413479640
C         4.57485492702571   -1.10935689440010    0.22255283429964
C         4.92795133213743    0.21241756841359    0.26096469745396
S         3.64320254468224    1.27419109698962    0.04237013584523
N         6.27832542462723    0.44322132819991    0.25289964110835
C         6.78856274087170    1.03221393576636    1.52648260928142
C         6.86898336880148   -0.12784380748967    2.54015134302136
C         7.72587867897653   -0.96516354775462    1.59413429669296
C         6.89861305580195   -0.95673695208286    0.29772195519283
C         5.74976432916602   -2.01005122041061    0.20244335589141
C         8.92221668806834   -0.04967895247104    1.47443587757676
O        10.09964061561870   -0.35852503979202    1.36528614909703
C         8.26699790662457    1.28217162412627    1.19082029811668
H         0.34879618522010    0.34538269776503    0.26971771913270
H         0.75327364546439   -0.52350381029734   -1.06648864484714
H         1.09061119354551    1.23918901863713   -1.03597397083880
H         1.66486753525102   -2.65701062653983   -0.20067851653478
H         3.24935748342661   -3.33183632380763   -0.12360069241113
H         6.23535527660052    1.89659324565780    1.90200296257665
H         5.92246084538908   -0.58128662157578    2.85158450502431
H         7.52142807034502    0.22892466332980    3.34501827075581
H         7.91977887057220   -1.97980490991188    1.93635592016594
H         7.42867803912842   -0.98612972226089   -0.66262133287574
H         5.81792674776474   -2.62810275331376    1.10378647540950
H         5.69227952511708   -2.57795375294268   -0.73251322039570
H         8.49197550520318    1.62346273603683    0.17877814248696
H         8.64269308099900    2.11351277586393    1.79315393305284
