30
 energy: -45.977966261807 gnorm: 0.117312040935 xtb: 6.4.1 (79825abcba525fcdf90b791dcacef51065a7a4e7)
C         1.05395068405985   -0.08374922989358    0.12381720414445
C         2.54112228296707   -0.04129740284225    0.05828722299814
C         3.35721995901094   -0.80338005209009   -0.76115216080116
N         2.91943970981143   -1.60918375498604   -1.74690148524494
C         4.71315430161742   -0.63590821299229   -0.42724305282806
C         4.86663896132246    0.28554711248545    0.57305830646830
S         3.43409829171859    0.85779600890390    1.24095387362138
N         6.17215256058628    0.60892244609357    0.83365042369475
C         6.62877892608290    0.25683544201499    2.21089226670377
C         6.86809476797951   -1.26604676942323    2.15359091124177
C         7.80462826538063   -1.14443552741269    0.95424196728191
C         7.08474734674968   -0.23828587718443   -0.05857028546955
C         6.03996025068938   -0.83707256317949   -1.05269140268568
C         8.83382907040037   -0.21548258461896    1.55545450920441
O        10.01893725410730   -0.27826231423450    1.26355731435064
C         8.05349030378077    0.81923750592585    2.33262961894179
H         0.59834332466645    0.25790117487390   -0.81038904078281
H         0.80289775239438    0.66247274458542    0.88417876730632
H         0.59104555464100   -0.99044190783270    0.52824099701910
H         1.91431027451934   -1.74732326841260   -1.71299601420500
H         3.55040894528144   -2.27717425275530   -2.17920867876493
H         5.96734600325715    0.69864672883265    2.96023524624515
H         5.91250947478220   -1.77987814687509    2.00750891054370
H         7.40878560242064   -1.58487944402646    3.05179898855476
H         8.28146764980671   -2.06591929388995    0.62606230580397
H         7.87054761061969    0.26632107570439   -0.63474892863310
H         6.27193338244928   -1.87543823721487   -1.31160921072141
H         5.95819665490358   -0.23094856255432   -1.96147630171545
H         8.18553269716519    1.82144928736520    1.92097415650858
H         8.31872683775028    0.82267283069725    3.39315711141527
