30
 energy: -45.980704951153 gnorm: 0.112984314923 xtb: 6.4.1 (79825abcba525fcdf90b791dcacef51065a7a4e7)
C         1.08479820803256   -0.28746193009711    0.33144720547713
C         2.53845442116280   -0.08341216313885    0.08040335013385
C         3.35134317783176   -0.89472857364157   -0.69370506790856
N         2.98961052888989   -1.80866086635728   -1.61378666157930
C         4.70320184696770   -0.58640622038335   -0.45808775611309
C         4.93691304165564    0.47636454675688    0.37205539427761
S         3.48250246941221    1.05346569192098    0.98636005605227
N         6.24933563701842    0.72976591452387    0.67235574956961
C         6.66086049409494    0.56344462911347    2.09792669479389
C         6.69996087817332   -0.96542835915014    2.29977885401030
C         7.67521011245510   -1.16135676586747    1.14183966508286
C         7.01819060019505   -0.39919486427914   -0.02115602606857
C         5.98380481972903   -1.20604272431063   -0.86817724806391
C         8.82178022264834   -0.25245060077206    1.51990176895139
O        10.02403848976187   -0.35046084611226    1.32344381877277
C         8.15265129475683    0.91458664714272    2.20828098767143
H         0.71469337549424   -0.72864222596644   -0.59883593942578
H         0.54105750682083    0.66166973113380    0.37043008272194
H         0.81205162810121   -0.78325381171899    1.26938701648192
H         2.09727133058724   -1.68551956019532   -2.08185104219782
H         3.74621234122163   -2.08870705352613   -2.23051254538000
H         5.90679885247512    1.02033572597938    2.74356374016293
H         5.67318722516475   -1.33433888710113    2.20951936482083
H         7.03911545550189   -1.36799912630904    3.26086654727532
H         7.85807386251765   -2.21089066144832    0.91991744898751
H         7.68487940574322    0.14229625884041   -0.70409486329166
H         6.05470091890177   -2.27250970501142   -0.63011179855628
H         6.20775765126105   -1.09099642669861   -1.93427812099994
H         8.50580365856230    1.86025048640321    1.79315789614143
H         8.52196569203098    0.78545793848821    3.22907158131558
