30
 energy: -45.973300058841 gnorm: 0.116151496576 xtb: 6.4.1 (79825abcba525fcdf90b791dcacef51065a7a4e7)
C         1.15728828932405    0.19677836805055   -0.16501757100960
C         2.63027507350225   -0.01925079417636   -0.12737379608958
C         3.26621402616977   -1.24868694244319   -0.17569263244799
N         2.68867326491860   -2.38810878518705   -0.60094247285881
C         4.65813435207532   -1.07121686511544   -0.07997299638580
C         4.95722730971634    0.24525209198071    0.14517847256699
S         3.67744845294912    1.33515575676600    0.14370984841934
N         6.27015767829771    0.47740340054889    0.46008362396585
C         6.70492251022454    0.92639427658423    1.81605366128941
C         6.89963269775543   -0.37502351578412    2.62111603488436
C         7.72960890217825   -1.05205989057288    1.53341965136849
C         6.89181199302609   -0.90710662548478    0.25193251868493
C         5.82050200816633   -1.98809069411743   -0.09759676688428
C         8.81057604718045   -0.01844344265398    1.31706009639562
O         9.94508689266231   -0.17784869799000    0.89149954831122
C         8.19251923327662    1.29954890687818    1.72261816783551
H         1.01162104908412    1.27920872280423   -0.10044237590465
H         0.46955797785528   -0.26865201435136    0.54802248068140
H         0.73632638332259   -0.15512822113028   -1.11311260729993
H         1.68798749053017   -2.41481395119897   -0.76956071059156
H         3.23414773785377   -3.19983827377885   -0.32749078917206
H         6.01851406269000    1.72952301380673    2.09539808024899
H         5.94108948578282   -0.86573710165094    2.81834933891311
H         7.43444746593313   -0.28052552588935    3.57286279651789
H         8.09871027856072   -2.06578330968269    1.67603459651465
H         7.54868085324340   -0.90259341240514   -0.62704130725839
H         5.80329370324771   -2.78735195622333    0.65069365218449
H         5.97729102555001   -2.44283266127393   -1.08176572849587
H         8.45147504371220    2.02549948472546    0.94979120395957
H         8.40949263269079    1.61020710472237    2.74804237828122
