30
 energy: -45.979593470029 gnorm: 0.124177688621 xtb: 6.4.1 (79825abcba525fcdf90b791dcacef51065a7a4e7)
C         1.11174908281307    0.13607777191888   -0.32542225498752
C         2.58802222217818   -0.05472459729112   -0.28083795500840
C         3.19399544900079   -1.28574047659781   -0.09199246764726
N         2.57523444171779   -2.46556824791540   -0.28645098929787
C         4.57939623925839   -1.13494558303872    0.09781161174085
C         4.91189061088598    0.18856025389843    0.20278807019028
S         3.63668898518499    1.27705639005632    0.08128485747222
N         6.26104993320380    0.40101501743665    0.30992215297621
C         6.87400406461381    1.11067262400032    1.47179190205164
C         6.90141811597592    0.04779617751780    2.58949842901764
C         7.72389529736902   -0.89923322185923    1.71944740991133
C         6.93861219735663   -0.96997537409772    0.39904959852752
C         5.76309483534900   -1.99510545186669    0.32375273296743
C         8.89115061817117   -0.03986645437473    1.29205045063319
O        10.00008746657886   -0.55006213380887    1.23216632355552
C         8.35858832905927    1.36919449861531    1.17163430791170
H         0.56421339898158    0.00227639781999    0.61231237806031
H         0.69637295323928   -0.56784143863284   -1.05342289527527
H         0.73352190232635    1.05018997346103   -0.79582044121274
H         1.64691878906828   -2.51624677685295   -0.69410160821909
H         3.16093697246662   -3.28777645577196   -0.39667436946346
H         6.29829447568997    2.03074810285498    1.59917011889323
H         5.94392839235539   -0.40428333117443    2.86760530652586
H         7.47057616578672    0.25833803158220    3.50191820408909
H         7.89832911559540   -1.89949793354154    2.11092329329997
H         7.60559421639560   -0.99470130822936   -0.47193586066436
H         5.61134384540577   -2.56620099704752    1.24563924794104
H         5.95692456714725   -2.65903577477943   -0.52571071628917
H         8.56120272954663    1.89310743824251    0.23579965061025
H         8.85870965872470    1.96021900285174    1.94341761616607
