30
 energy: -45.977403051777 gnorm: 0.118050988170 xtb: 6.4.1 (79825abcba525fcdf90b791dcacef51065a7a4e7)
C         1.04578768300026   -0.19760823378148    0.03383943968947
C         2.52147022355004   -0.02517512977349    0.13583721532022
C         3.34183626674434   -0.65124761421139   -0.78790466376632
N         2.79095534828537   -1.33908315197827   -1.80578744735207
C         4.70987351954475   -0.50209398355376   -0.49751300323563
C         4.88019355165066    0.29045458028240    0.60525538964384
S         3.45731299178631    0.71332147479206    1.39412835481683
N         6.17103419999275    0.63577272673033    0.90746625742750
C         6.62275790129555    0.18800563333177    2.25828760627955
C         6.88830437210529   -1.29106318893110    1.90962410904148
C         7.88473478929826   -0.97993683136117    0.79577987132727
C         7.01485549597095   -0.11237716106115   -0.12930099767862
C         6.01888804006249   -0.77416570626619   -1.13353558591895
C         8.90110215643605   -0.19622059489200    1.59355842872417
O        10.11251652635614   -0.23028296944830    1.43562915625086
C         8.07078473129716    0.58318973091949    2.58687002535049
H         0.72865123658172   -0.23164443750863   -1.01273133196990
H         0.59077892964408    0.70005355536094    0.46418216679271
H         0.78143241065088   -1.03845313417610    0.68424508725584
H         1.83329727912306   -1.67437840061586   -1.77439618666511
H         3.40426573430932   -1.94459798502686   -2.34283971915303
H         5.77950434282476    0.33779148003752    2.93703149096589
H         5.97569021143826   -1.82646990775221    1.62858865612965
H         7.37652651881744   -1.80515610781311    2.74516358030670
H         8.36411765757177   -1.78303311569970    0.23950795779011
H         7.62754908289689    0.58262486842013   -0.71723875186787
H         6.28563446700668   -1.83116433531092   -1.23675128395258
H         6.10408211367081   -0.22682115187466   -2.07858452506659
H         8.22417755274537    1.66168084919031    2.51866870988799
H         8.28470578999647    0.27539703170325    3.61379856173439
