30
 energy: -45.975155897202 gnorm: 0.108013049299 xtb: 6.4.1 (79825abcba525fcdf90b791dcacef51065a7a4e7)
C         1.12574855140067    0.23954475416627   -0.35231397251846
C         2.54402042394464   -0.09923177525416   -0.04980598002340
C         3.20915118390977   -1.31297566293541   -0.10170168039705
N         2.71814106441897   -2.51096588620479   -0.47102727262149
C         4.58195736035468   -1.08433968176974    0.10134723440942
C         4.92908382433008    0.22235580034531    0.31416271288479
S         3.60559061857997    1.25069123342814    0.18525172793366
N         6.27364105462916    0.47868787781398    0.37165490546734
C         6.88247407662624    1.09953371679534    1.58538502280014
C         6.81990007086562   -0.10224497983858    2.55054729224342
C         7.68111111720325   -0.98442768414570    1.65032988377568
C         6.88850496605944   -0.92386653882386    0.33380710958064
C         5.75866951339233   -1.98242850403902    0.13053198997159
C         8.87882605807588   -0.12763903510245    1.31113006371654
O        10.06031465447047   -0.41685727486669    1.19253756611294
C         8.37577274618007    1.29702609583696    1.28211217087786
H         1.08728273373353    0.93778143892174   -1.19375933010545
H         0.51552915713863    0.84388678477144    0.32623413794382
H         0.55846703012549   -0.67089341331224   -0.57418193610085
H         1.70737528439828   -2.58948978427201   -0.52302565555128
H         3.24839414996446   -3.37353751966157   -0.39340742601731
H         6.29913721081687    1.96648483874338    1.90525918889029
H         5.80745381868151   -0.51849359546751    2.53656290644671
H         7.20938925429286    0.12431867780707    3.54941950050850
H         7.95378692553845   -1.97677846498473    2.00402162695964
H         7.51577378041660   -0.81408834663895   -0.55982292364249
H         5.74446498231994   -2.74404732501691    0.91716293489493
H         5.84828811855718   -2.34154380862568   -0.90047057545595
H         8.41873108602171    1.85062474995839    0.34242766015319
H         9.03890434755261    1.86543406746365    1.93956912132797
