30
 energy: -45.972918626845 gnorm: 0.110082526677 xtb: 6.4.1 (79825abcba525fcdf90b791dcacef51065a7a4e7)
C         1.06471817276744   -0.24756922688091    0.17758558591540
C         2.55268315167685   -0.21294039568285    0.22795199136273
C         3.39901969907678   -0.79528364460420   -0.70094901772811
N         3.06249242304801   -1.55766647459848   -1.75839627530857
C         4.74016056800276   -0.43385134602865   -0.48002386743105
C         4.91928834478910    0.48511215384366    0.51830453671187
S         3.44241076106419    0.91773077928004    1.19461791206018
N         6.17313993363898    0.79394970190462    0.97582085208485
C         6.58539022148401    0.21098852631098    2.28710799088991
C         6.75704889485384   -1.28183780042557    1.93821172411204
C         7.73425320147603   -1.02922970780092    0.79296805319338
C         6.96114310893873   -0.01126773222926   -0.06212175103756
C         6.04992454785454   -0.74556021637421   -1.09599680890345
C         8.82030997655621   -0.26840893194958    1.51774168162163
O        10.01909308869211   -0.48366815969898    1.41670115644634
C         8.05545285440219    0.61705010041574    2.47405297580560
H         0.58390918575693    0.69909633050113    0.44157690836839
H         0.74257023232265   -0.86541877201983    1.02168698056701
H         0.74236819047892   -0.72057186512838   -0.75637927590497
H         2.10551644642079   -1.84605766095551   -1.93600483626214
H         3.86549654477404   -2.07986537712844   -2.09561382030475
H         5.95349837031390    0.42573197962532    3.15244235722222
H         5.83790816452384   -1.71203582160147    1.52758310023919
H         7.16584783825400   -1.96929827449979    2.68725119129755
H         8.15439155135062   -1.83145296291692    0.18953484922743
H         7.58370639791926    0.78128956823583   -0.49612627727250
H         6.26224819517394   -1.81079835270688   -1.23470376272771
H         6.19891939966686   -0.25380724926383   -2.06343732193454
H         8.07255694263966    1.70052561454533    2.34323964321297
H         8.41069554474722    0.39873210254929    3.48460760828588
