30
 energy: -45.978137413765 gnorm: 0.115523220865 xtb: 6.4.1 (79825abcba525fcdf90b791dcacef51065a7a4e7)
C         1.22690211167857    0.23200882708740   -0.69962206636947
C         2.60562512159232   -0.07503922232577   -0.22779598894680
C         3.09057645121325   -1.26171441506274    0.29650371059793
N         2.49899157364286   -2.46382739171036    0.42926048167621
C         4.48720442937028   -1.17711034371517    0.43923476458790
C         4.99372318409802    0.07829087237586    0.23762484120295
S         3.82680238907094    1.15154084759909   -0.32108459152990
N         6.34721203348949    0.28294873384816    0.18259279558982
C         6.84439154019129    1.18820104746286    1.26083150119159
C         6.89569563386721    0.26587446056562    2.49631006342283
C         7.69855891759167   -0.80284856468257    1.75904227501915
C         6.83965346145941   -1.12660173412263    0.52510969075479
C         5.61900744229671   -2.06101457572439    0.79951486860823
C         8.87868728212892   -0.04407372463193    1.19759580689243
O        10.02430656712092   -0.45261360836017    1.07810409383205
C         8.32139886481924    1.31888874378800    0.85798086573606
H         0.50822707449636    0.11857048329671    0.11749620052291
H         1.06716128460393   -0.38687860546437   -1.58815214297248
H         1.13000256635166    1.23973208158185   -1.11799468285789
H         1.50975317188809   -2.55871463991253    0.22208657942816
H         2.99217129233554   -3.27020165287410    0.80041710800767
H         6.15654619450314    2.03539786470093    1.20310858040758
H         5.87743118265676   -0.03127776733486    2.76713092248170
H         7.46642648412166    0.71740673629963    3.31555574856274
H         7.96028191700336   -1.69080710853340    2.33109182701026
H         7.39433768293510   -1.51181703578284   -0.33977562226555
H         5.52200004427437   -2.47678335533076    1.80786949379437
H         5.65412984493586   -2.86058337245972    0.05157256942862
H         8.38369267787005    1.66827583603642   -0.17418772331139
H         8.73318792700774    2.14406666800460    1.44500039948399
