30
 energy: -45.976647366822 gnorm: 0.105380535957 xtb: 6.4.1 (79825abcba525fcdf90b791dcacef51065a7a4e7)
C         1.10074093114288    0.18316772685451   -0.11415206833026
C         2.50202464744212   -0.23424596602896    0.16859416721468
C         3.34598143345567   -0.79952192124450   -0.77292922562531
N         2.88983345956655   -1.47522755658377   -1.84438794841551
C         4.69761191450726   -0.67180246192413   -0.40566525749850
C         4.82520226754135    0.07624039647246    0.73336628114950
S         3.37993059754002    0.63956786496981    1.38111469685984
N         6.08917878036828    0.50379319470734    1.04386199448432
C         6.66492715503708    0.09913654873449    2.36068954604825
C         7.03697407805758   -1.37487225200594    2.09876419528187
C         7.85847042909693   -1.04905668918998    0.85405132193121
C         6.95723252915147   -0.16645534722856   -0.02566993793467
C         6.01730623936406   -0.89238889159041   -1.03955425977120
C         8.82403144782052   -0.03980241001669    1.43090667972050
O         9.97194306833794    0.14103310585500    1.05245707855650
C         8.08650777723189    0.64858601197851    2.55596473266826
H         0.99084632108727    0.84495276608455   -0.97844837561532
H         0.84855476222240    0.86231554487473    0.70632638471450
H         0.31777023340320   -0.57890501880071   -0.03583612902956
H         2.00506003023520   -1.22983490005194   -2.27737260675101
H         3.51267675239281   -1.99900444719623   -2.45179801684147
H         5.96365883127132    0.36023759752938    3.15709058010116
H         6.24275337067201   -2.08312744039445    1.84167677155499
H         7.68046535911382   -1.70728083443145    2.92107928561985
H         8.29431047599713   -1.83522119531356    0.24070081887905
H         7.62051809987751    0.59849290939337   -0.44875204809381
H         6.20264613152793   -1.96556460669272   -1.15355531398746
H         6.05278954413183   -0.31669358633988   -1.97083157385228
H         8.14635315981018    1.73840221056078    2.54940331640455
H         8.55567729898669    0.21177161173922    3.44148939201085
