30
 energy: -45.980903014490 gnorm: 0.118482468948 xtb: 6.4.1 (79825abcba525fcdf90b791dcacef51065a7a4e7)
C         1.06951812547906    0.09640671052715   -0.13139986441787
C         2.54550429217953   -0.05612538437057   -0.00500957850280
C         3.24635453071243   -1.19115604403451   -0.37754229490845
N         2.65159586289478   -2.37459081944425   -0.61923867186103
C         4.62962434983148   -0.98863989938435   -0.22375065688734
C         4.98348981145969    0.22195529626666    0.30773666464069
S         3.64672938410845    1.24101555698832    0.32545100942756
N         6.31516535624412    0.52290929403477    0.42137007224634
C         6.82118578051343    1.02486471762384    1.73333504100411
C         6.77897145510935   -0.28318444069250    2.55000578065349
C         7.72109189209209   -1.00742038173893    1.59177117584047
C         6.96367596015011   -0.85573736439681    0.26194496643878
C         5.80389337347976   -1.86501271368864   -0.01131312414332
C         8.90585522017055   -0.10497908594710    1.33564630267681
O        10.05131943887711   -0.39562345576375    1.02409494539520
C         8.32712572926526    1.27339143530966    1.55642286532342
H         0.78375634205493    0.91168097108294   -0.80275108280027
H         0.53846641141591    0.31233186335137    0.80100827290129
H         0.54787007942296   -0.71593945007698   -0.64899855717358
H         1.73693145547402   -2.36407151733223   -1.05946095204795
H         3.27101292438763   -3.06147039125763   -1.03845453670128
H         6.22429038243873    1.86122793580949    2.10538084365073
H         5.75619525952410   -0.67360006635530    2.54678396902351
H         7.08321868281384   -0.13279599647888    3.59192494430362
H         7.91792939766837   -2.06614678546762    1.74849837766470
H         7.62657643739486   -0.85186700372789   -0.61249201514930
H         5.68953545990493   -2.52452864172400    0.85529765444761
H         6.02577564372023   -2.53720394441982   -0.84730881797829
H         8.51683930869401    1.89597103479407    0.68022239267961
H         8.66486142098308    1.79707906322501    2.45462476590583
