30
 energy: -45.977838025772 gnorm: 0.117529530351 xtb: 6.4.1 (79825abcba525fcdf90b791dcacef51065a7a4e7)
C         1.21975429810742    0.28239292163214   -0.01412922145302
C         2.65180447996577   -0.08406495215876   -0.19500658446495
C         3.26454621637520   -1.32593121454808   -0.17088074712910
N         2.61324946591694   -2.49346164059941   -0.33012314637408
C         4.66542974120028   -1.20343333557775   -0.14598723986419
C         5.05027222906113    0.10095233109554    0.00800811689370
S         3.78123989066344    1.20067185217219    0.08481929599003
N         6.39243003857455    0.36285365390850    0.09086781085282
C         6.76898956166588    1.12462130777191    1.31854079643299
C         6.59318048522121    0.07208822713840    2.43253856514180
C         7.56107200885592   -0.86034071979616    1.70860180681192
C         6.95244357265630   -1.04627551477035    0.30855750157719
C         5.81537750545051   -2.09883782651402    0.11466139441721
C         8.77509509314633    0.00159788567027    1.45000138604207
O         9.88421848547118   -0.50423022941864    1.36276668950401
C         8.27609790026368    1.42337901537777    1.33547790053991
H         0.61719538777376   -0.12555025007942    0.80290781199484
H         0.68251134006938    0.06837093423063   -0.94342417974742
H         1.18471889446387    1.36533863445757    0.14690640085207
H         1.64387480429461   -2.53151480602104   -0.03115489718295
H         3.18678633483520   -3.30285663499036   -0.11296377801146
H         6.08740262888655    1.96986421968160    1.44186678405554
H         5.55778948069483   -0.27719653213427    2.49940792667646
H         6.94772787694014    0.41182377999581    3.41215813607363
H         7.67957806263399   -1.79651772911850    2.25057868832918
H         7.76039194263602   -1.16862176947429   -0.42379683968970
H         5.78483668223719   -2.77414875861693    0.97609952179732
H         6.06058624576601   -2.53399665433499   -0.86025965519918
H         8.68854489382731    1.89587127032073    0.44219048008550
H         8.56237672626946    2.01864271621907    2.20656133168243
