30
 energy: -45.975366353805 gnorm: 0.118020651592 xtb: 6.4.1 (79825abcba525fcdf90b791dcacef51065a7a4e7)
C         1.07099716797457    0.06113554952185   -0.07298065803422
C         2.55611931836374   -0.00504716672964    0.01538086252135
C         3.34287872990690   -1.06711037599875   -0.39850035463687
N         2.89324131582841   -2.19937405230322   -0.97163039894738
C         4.71860332058637   -0.82971988678076   -0.22783208756951
C         4.96721013444009    0.43337314963924    0.23695917003473
S         3.56126452093033    1.23072047545315    0.69878190684261
N         6.30250871075744    0.62955578952345    0.47219459297603
C         6.66478592637120    0.76043073434114    1.91472534219834
C         6.70892172504323   -0.72507721523751    2.32829989384782
C         7.66354779421130   -1.14547883992632    1.21372656116540
C         6.97979868983115   -0.63481652864537   -0.06566217573613
C         5.90550131474630   -1.62248656561560   -0.62135579947728
C         8.77489140562295   -0.15136981344674    1.45934212531029
O         9.98620248076988   -0.24722685750608    1.32833228257533
C         8.15731741997670    1.11235430305505    2.01177233427071
H         0.77274001255241    1.06112816717025   -0.40176905444586
H         0.63474658485673    0.05530130150100    0.93084996197191
H         0.61028655019498   -0.75983539350163   -0.63305548550891
H         2.00707678176932   -2.56347451641777   -0.63598093606054
H         3.62327730966614   -2.87461805056123   -1.17733887287842
H         6.08920476093203    1.45205603916504    2.53485951176351
H         5.74751892424319   -1.24872669926080    2.32697341300589
H         7.18813747760053   -0.83106326238556    3.30804364742700
H         7.99714542429072   -2.14973538718657    0.95997190748833
H         7.74702542047723   -0.42709247241791   -0.82217120816304
H         5.89771828744057   -2.64357670451030   -0.22592237929301
H         6.12746649830970   -1.72894396936863   -1.68876381677842
H         8.48064875112914    2.00609492331981    1.47510817246310
H         8.46190274747043    1.23985873862569    3.05391012756989
