30
 energy: -45.976423487769 gnorm: 0.120536473180 xtb: 6.4.1 (79825abcba525fcdf90b791dcacef51065a7a4e7)
C         1.19104505060597    0.35264851492485   -0.17555514133630
C         2.61446158801407   -0.07111269342612   -0.06561195883721
C         3.22437120545427   -1.31459876564049   -0.06126033342045
N         2.59791108287159   -2.50632815379719   -0.06254886461116
C         4.61722267008412   -1.20590803827505    0.10076178220390
C         5.02692235722884    0.09744583509047    0.01918298561790
S         3.77510717002703    1.21627782873633   -0.06388172507378
N         6.36278516029186    0.35117318850169    0.18633142060795
C         6.70886574520657    1.08362535333780    1.44052839022988
C         6.69218028390206   -0.04049129696240    2.49684704330822
C         7.62893295396642   -0.94568404832851    1.70095591355405
C         7.00713865873052   -1.03417024104750    0.29715164456036
C         5.83824743137982   -2.04232426605064    0.06109842087076
C         8.78918307401329   -0.01573386086523    1.43136976502660
O         9.98576028175730   -0.25754929815928    1.37344781720471
C         8.20218756751144    1.35821450716383    1.20492427120670
H         0.54041216671770   -0.51774278708015   -0.04851103879836
H         1.04470415788664    0.66091688051866   -1.21554527472107
H         0.98484884369504    1.16990318648557    0.52409426761548
H         1.59039380031095   -2.48648001482502   -0.18515499877546
H         2.75263326082745   -3.18820868486479    0.67387694860292
H         6.15938587822778    2.02749127540493    1.47787300289523
H         5.78961291608577   -0.64578058925072    2.62914558992780
H         7.11792730361160    0.28707290592996    3.45194901201218
H         7.84946122208488   -1.95687100868245    2.03722698088942
H         7.78365988886848   -1.10584139305016   -0.47483934041010
H         5.84558786704752   -2.94553894077867    0.68013202967790
H         5.94510645790676   -2.44571712572491   -0.95172779044431
H         8.52697459106270    1.72812015133417    0.23075433201966
H         8.47419534737844    2.10550470373287    1.95502420528650
