30
 energy: -45.975656302146 gnorm: 0.118295629882 xtb: 6.4.1 (79825abcba525fcdf90b791dcacef51065a7a4e7)
C         1.08845092074280    0.15008240735471   -0.27900177988439
C         2.56247199736932   -0.06142951614754   -0.26167324622404
C         3.24667104523441   -1.26415236520013   -0.20170905396653
N         2.68829184008358   -2.47734617302560   -0.37213893368600
C         4.61198487414539   -1.06531175439256    0.07120233486985
C         4.95081449418430    0.25560226416974    0.18791108427841
S         3.60418192791485    1.26106112977949    0.15104267938779
N         6.31145441792692    0.40216823466909    0.25133858402299
C         6.82188991943277    1.17703552258361    1.42108397658773
C         6.86967162726918    0.09513792468754    2.51969229797338
C         7.65268185100783   -0.95221649880755    1.73212269747868
C         6.92505131850422   -0.99572928798738    0.37794958207802
C         5.73018504695145   -2.00001392547938    0.33202219724982
C         8.87610482338493   -0.13692961997984    1.38254020021515
O        10.04929243809105   -0.45599384644271    1.25821999313126
C         8.33600921331806    1.25872230310189    1.17271205944499
H         0.73105341441954    0.37295870493879    0.73076925950528
H         0.55808622919194   -0.76797374139220   -0.55086705017152
H         0.80146286002092    0.86221155244609   -1.06030921246949
H         1.67334627353942   -2.49739664896797   -0.37126170264669
H         3.09214304115046   -3.29836487045422   -0.81265624832580
H         6.34403426253382    2.10251211524243    1.75176914138420
H         5.84877489638992   -0.12976942773150    2.84479602786751
H         7.44484946871048    0.52919272386275    3.34524997909820
H         7.88161451793808   -1.92409831475258    2.16484153089444
H         7.57441454071690   -1.16807434538263   -0.48964286027577
H         5.66116035537034   -2.67618674542406    1.19055533929685
H         5.90975596143910   -2.73803954936685   -0.45730286930457
H         8.55827097977091    1.63045965072343    0.17084634012664
H         8.91120977213966    1.82680022187404    1.90858744181678
