30
 energy: -45.971234526809 gnorm: 0.125673971514 xtb: 6.4.1 (79825abcba525fcdf90b791dcacef51065a7a4e7)
C         1.17010443253310    0.22921462212146   -0.09104026059133
C         2.61331361238963   -0.12630129640229    0.00132531544124
C         3.25598991907596   -1.34834908019216   -0.10745272346590
N         2.57107252153519   -2.48098437122822   -0.35382305081405
C         4.62612466272020   -1.22123180745085    0.18353186970373
C         5.06788582522557    0.07386423351035    0.21205519714087
S         3.77625141795454    1.14863568917661    0.16438009677825
N         6.40384310450257    0.32632991270190    0.04375538381040
C         6.79252489687168    1.21268347928810    1.18066865921797
C         6.65605359697850    0.27509772021805    2.39805695827372
C         7.51265150747346   -0.84618152867375    1.81556658277712
C         6.92742040383334   -1.06581263730991    0.41043630168428
C         5.80465981860232   -2.11622375198052    0.13758558394610
C         8.74126225802200   -0.02222889829582    1.50688864325185
O         9.88656117945634   -0.43730031585767    1.40874196259034
C         8.31867122731676    1.39098484326287    1.17853038423098
H         0.62495175645792   -0.44053020277927    0.58074452719609
H         0.69360614219645    0.24927374507285   -1.07621615384036
H         1.12075651329516    1.27152714433133    0.24224753310819
H         1.80350425209363   -2.39030698536125   -1.01195210361432
H         3.10392894885820   -3.26390255707769   -0.72032834094913
H         6.21611588927420    2.14031282605681    1.14243160107548
H         5.62181663274646   -0.00395377878457    2.62386672060484
H         7.13084297258048    0.64544882750584    3.31358615359723
H         7.75600688876666   -1.77766336923048    2.32284338639217
H         7.71335314407546   -1.27360462227413   -0.32660119371319
H         5.67121806487776   -2.99003350157884    0.78388509087286
H         6.04234144007555   -2.57254889521833   -0.82949062935594
H         8.68083486985286    1.68285068972979    0.19112181112047
H         8.72587812095362    2.02802865705454    1.96811160676860
