30
 energy: -45.975060111143 gnorm: 0.110833328085 xtb: 6.4.1 (79825abcba525fcdf90b791dcacef51065a7a4e7)
C         1.09892803816557    0.14779316318910   -0.55195598443624
C         2.55706063504642   -0.09041206511993   -0.36518526474508
C         3.11421613591302   -1.24636844288300    0.15597582781952
N         2.59845903795429   -2.48138567072845    0.30226299039399
C         4.50100010694044   -1.13598663170667    0.36272714268805
C         4.93811518734427    0.14142343462190    0.13824062143597
S         3.73709281302325    1.17817071641936   -0.41712087830910
N         6.29906365412638    0.26898548762782    0.22985294657365
C         6.90126191731893    1.18338795694024    1.24498514504024
C         6.92289972516986    0.29020091886252    2.50255203036818
C         7.72844375811247   -0.81502042319346    1.82438776597625
C         6.81717051275178   -1.11792672575973    0.62315788676929
C         5.56430986908269   -2.00028716442286    0.92346210016383
C         8.90334018217285   -0.06298457499792    1.24324676503106
O         9.98504144758658   -0.51795389435063    0.90184968665573
C         8.41075632666025    1.34624668002927    1.00871782536630
H         0.69322079354486    0.72012024275995    0.28761993003230
H         0.50703311144930   -0.77102364241883   -0.49312913386639
H         0.94312043172001    0.76046286360055   -1.44654594605023
H         1.62686489345924   -2.62380308002075    0.04489285453975
H         3.27851923506317   -3.13683281098156   -0.07073855230227
H         6.41840798031710    2.15851097840101    1.34594454426843
H         5.95889069706440   -0.15851100162433    2.76303253600312
H         7.44894170547040    0.66735593049308    3.38675366827172
H         8.09144958134159   -1.63917478890241    2.43529395544102
H         7.44158241242558   -1.50706153098087   -0.19095263396859
H         5.51128901373044   -2.07265797526565    2.01479361942209
H         5.59994718643680   -2.97325113189228    0.42143352461575
H         8.78963302086916    1.41819551856160   -0.01235988235567
H         8.87481476449710    2.13641924478557    1.60483683132763
