30
 energy: -45.983906632505 gnorm: 0.118907736759 xtb: 6.4.1 (79825abcba525fcdf90b791dcacef51065a7a4e7)
C         1.08682843878079    0.16620363922233   -0.55319017245624
C         2.52009121940761   -0.03383448322152   -0.20173851299565
C         3.14666737289904   -1.25492724809888   -0.01572484250405
N         2.64320238907849   -2.50229606826499    0.04143215804153
C         4.51808934402464   -1.08118850081983    0.24334402530206
C         4.94036505323495    0.22065149063246    0.25501178175163
S         3.66645132018163    1.26153346648075   -0.09058128951180
N         6.28643224799200    0.45426741432287    0.35685640839389
C         6.81886326092625    1.04222001857355    1.62180579422585
C         6.92354529434570   -0.15142385315647    2.59339301604496
C         7.74802290610763   -0.99634194613977    1.62557471831789
C         6.92014171517507   -0.94014270802447    0.33074702344252
C         5.72060142645932   -1.93987871521394    0.33652435528724
C         8.84434390774378   -0.02967831977937    1.24176997636742
O        10.01287956778492   -0.33190369862810    1.04990829551385
C         8.27872414628377    1.37126960363211    1.27330738367157
H         0.36520407650358   -0.37140226901891    0.06913012040718
H         0.96633410753111   -0.07778829602605   -1.61336637282284
H         0.79463462938504    1.22169987048428   -0.53123888306374
H         1.83286262538808   -2.60185847973601   -0.56185390861419
H         3.32383133105540   -3.23261804749240   -0.14457062219155
H         6.28353707789859    1.90942348910246    2.01625433063960
H         6.00331836483589   -0.65598150177518    2.90501757485875
H         7.48713687356643    0.06326335771423    3.50829876896218
H         8.01971976086329   -1.96792809784061    2.03350999282289
H         7.49997144494303   -1.05230533934052   -0.59408219654981
H         5.69571781297805   -2.50894890648251    1.27172120937008
H         5.86132779538705   -2.71059582801682   -0.42908182283491
H         8.50780284281089    1.98533849418153    0.40051518769530
H         8.85842959479024    1.79257767891265    2.09885076915035
