30
 energy: -45.972610471059 gnorm: 0.126196040289 xtb: 6.4.1 (79825abcba525fcdf90b791dcacef51065a7a4e7)
C         1.14087691136313    0.12639490956388   -0.54927506400204
C         2.59424683830243   -0.08880165739557   -0.30600161156000
C         3.21087548674112   -1.32633541140117   -0.22509691456773
N         2.49930449912020   -2.46718118450947   -0.29445478860241
C         4.57356794717509   -1.13419024274519    0.06516077554474
C         4.92635162244403    0.18754081925156    0.10771595031932
S         3.62284423369483    1.24881348822429    0.09054425433919
N         6.25399366278841    0.38910252936329    0.37898170562593
C         6.82565643060772    1.08744681160149    1.56842903507652
C         6.96331517296617   -0.00923353068400    2.64456473740390
C         7.74354967094182   -0.91270430340296    1.69309384225464
C         6.90373743110552   -0.99786001368328    0.40756349141703
C         5.71711883103165   -2.01288923632803    0.40019242498475
C         8.89119385538481   -0.03881439750150    1.24265667395621
O        10.07603939005039   -0.32801890123432    1.16437202248575
C         8.29684179640527    1.35019305464910    1.21136236214461
H         0.52271849496673   -0.77531810451719   -0.50640102390857
H         0.91513716531834    0.55905571390523   -1.52900498362316
H         0.72614453466734    0.84585140002914    0.16508533470543
H         1.53943332515487   -2.32824121200702    0.00531227903654
H         2.97746264867458   -3.25182579317389    0.13788836193703
H         6.37828579277451    2.05709250836444    1.80049016305834
H         6.01186246004106   -0.47513172832594    2.92057649950053
H         7.63140624821793    0.36805636194994    3.42692351393633
H         8.04151292870136   -1.90573271732975    2.02373334839550
H         7.58918970811646   -1.08015946101320   -0.44535739216790
H         5.60568478723267   -2.39371059585579    1.42078576919861
H         5.94139511666792   -2.72304924796347   -0.40313471525935
H         8.40502496078290    1.64924202873084    0.16724073036034
H         8.96497101965776    1.86532771243436    1.90657485423738
