30
 energy: -45.982519159897 gnorm: 0.111439020672 xtb: 6.4.1 (79825abcba525fcdf90b791dcacef51065a7a4e7)
C         1.09108314322638    0.13828180398835    0.03350117258883
C         2.56693521304852    0.01362324554413   -0.12172960540791
C         3.30114098431754   -1.06127538031080   -0.59480581334620
N         2.85464445921734   -2.20439252479800   -1.14851776263714
C         4.65940085355254   -0.82002128582652   -0.32089591429151
C         4.88396967719044    0.34250731702964    0.36564350063017
S         3.47367587829942    1.09785810020014    0.88163057389572
N         6.19762938820424    0.60745429117034    0.65015517572246
C         6.72694463061362    0.67316588674614    2.04470720608636
C         6.76605891796692   -0.84548382352190    2.31284686923792
C         7.77744343895820   -1.13112109472919    1.20567259546559
C         7.00152209937413   -0.53400732845343    0.01970227386654
C         5.94644684507121   -1.48130590906888   -0.63439555381188
C         8.88223961213515   -0.13874152287971    1.48544498283126
O        10.08689105386333   -0.33478357923550    1.42212760417496
C         8.17718594189091    1.14503295667020    1.85746355205100
H         0.79442224214543   -0.36128812095172    0.96057537075733
H         0.51084371271349   -0.36172378428805   -0.74838189742845
H         0.79533350164539    1.19297470913399    0.04279581550236
H         1.84071033476854   -2.18533199368806   -1.10278409902618
H         3.22311954506833   -2.39458919129738   -2.07548827124461
H         6.14079412728953    1.34207750695645    2.67968000995404
H         5.78048681231364   -1.31198342980465    2.21521680431036
H         7.20261674380396   -1.14565585229389    3.27206145461191
H         8.10282716636279   -2.16832630357317    1.15526621139340
H         7.71116760186889   -0.17158543536100   -0.73471517745185
H         6.04420522679651   -2.45190552324003   -0.13696925594466
H         6.20902229319393   -1.58839106343550   -1.69248274250091
H         8.35272060604353    1.80312541039778    1.00457096036919
H         8.66830180716888    1.55649615572343    2.74323103108007
