30
 energy: -45.977678077196 gnorm: 0.122373703310 xtb: 6.4.1 (79825abcba525fcdf90b791dcacef51065a7a4e7)
C         1.08978349043961    0.18991451447847   -0.50287876577257
C         2.54482391270576   -0.02443336501222   -0.26902396003454
C         3.19704678132439   -1.24389889777780   -0.19302763585363
N         2.62377051140648   -2.44242403089539   -0.41112099156074
C         4.55676256459120   -1.13889365474223    0.15084291237909
C         4.94971563495345    0.16727298613604    0.26378925310227
S         3.69423584642198    1.24869656337069   -0.01908812902181
N         6.28900584145212    0.41794770140176    0.40630086207075
C         6.80938489156580    1.02828046172498    1.66565290500517
C         6.98396768801791   -0.12163762478081    2.67903091590683
C         7.78744802179244   -0.97848905549872    1.70407083936590
C         6.87472249510808   -0.99625482502861    0.46643564728938
C         5.70655290110290   -2.03151617240393    0.42153461498496
C         8.84407406086472    0.00497946018472    1.25686229946776
O        10.00748442808995   -0.26318538023339    0.99572898295326
C         8.23353289975471    1.38662605899035    1.21364686533300
H         0.53695391742336    0.44946420132484    0.40489752909918
H         0.64485021746170   -0.67314861433270   -1.00803314012642
H         1.03725340956934    1.02501150882448   -1.20983348015112
H         1.66131289446372   -2.43882931986818   -0.08835219029610
H         3.08146064958280   -3.31713351450065   -0.17315870813794
H         6.25206383260545    1.88800788673915    2.04574187109438
H         6.05722380082336   -0.67610438153750    2.85852540252025
H         7.60107551677989    0.13443690029968    3.54758279617852
H         8.04876717487992   -1.99053147405170    2.00687846944530
H         7.41072483841228   -1.10104962862316   -0.48530569891125
H         5.66685282559390   -2.51445544679809    1.40349530704484
H         5.81332089650983   -2.78025025738131   -0.37090431546484
H         8.30564187906416    2.02308752870189    0.32988164678406
H         8.90531913741077    1.90322704182232    1.90423173258893
