30
 energy: -45.980229717250 gnorm: 0.114971200698 xtb: 6.4.1 (79825abcba525fcdf90b791dcacef51065a7a4e7)
C         1.02951558622870    0.26720486945704   -0.21205403728193
C         2.45758063838467   -0.07976988793680    0.02880779070393
C         3.33532733597835   -0.81732631474209   -0.74826204648982
N         2.93820370563650   -1.70126663683014   -1.68293589659207
C         4.65694866404329   -0.70372151987091   -0.28081036238805
C         4.76026266056681    0.16353196037409    0.77296281925520
S         3.27923048666829    0.75035467968138    1.30953424196699
N         6.07206973454180    0.51952019505801    0.94407749537862
C         6.74604303214672    0.26759855101265    2.25234485985779
C         7.11966155164578   -1.22588760606292    2.15419163339416
C         7.93335368262213   -1.07014129216167    0.87201755116457
C         6.92748052033832   -0.31580650904191   -0.01360234655748
C         5.93984240184505   -1.28423285078240   -0.73825656672791
C         8.92300751241918   -0.05958042420970    1.40401042946261
O        10.13590962062018   -0.02593488817460    1.25784911084467
C         8.13627515742419    0.92185831020446    2.24151005610926
H         0.82626483085396    1.26384528375406    0.19098614127692
H         0.38014606732869   -0.54485217694830    0.12986276839215
H         0.84943857107713    0.21332456476185   -1.29122063589601
H         2.02024508849058   -1.42042002476271   -2.01307895533250
H         3.67526944922461   -1.87269973006089   -2.36011221371759
H         6.09545757347159    0.55222113387724    3.08296762771349
H         6.19955068093697   -1.81377158920541    2.07485502852492
H         7.73676807175620   -1.58083715562195    2.98723963030957
H         8.28889635820598   -1.98486907393618    0.40183406305811
H         7.46825520050135    0.43935248697100   -0.59788797771338
H         5.99280972134336   -2.32532296550406   -0.40302668234005
H         6.03851343627485   -1.33828465374878   -1.82789138083666
H         8.22321377823933    1.91115541902833    1.78867810188236
H         8.53618176568454    1.06291016825169    3.24911110030542
