30
 energy: -45.976962901109 gnorm: 0.128027049124 xtb: 6.4.1 (79825abcba525fcdf90b791dcacef51065a7a4e7)
C         1.12963656420703    0.19751354363080   -0.18727408739316
C         2.58416629961412   -0.06438080364897   -0.00416125983872
C         3.25904540934658   -1.27384368073003   -0.00616620909437
N         2.67675219222651   -2.46704724889827    0.21715583130234
C         4.64688273397624   -1.04792613009773   -0.03729295354578
C         5.08620027235076    0.24819796808154   -0.01989478823916
S         3.72754464300604    1.23539354207671   -0.09218474965277
N         6.43426997121310    0.43984122217626    0.13118986444702
C         6.75316285359515    1.11502668762504    1.42413220840552
C         6.57795839711229   -0.06711920437340    2.39961169759803
C         7.57501826279299   -0.98898579882180    1.70221957025018
C         7.01592893275141   -0.97052948213696    0.26966839660069
C         5.83415320071379   -1.93174331445138   -0.07366300171454
C         8.79747618291109   -0.11558596839387    1.53963496307578
O         9.97809869798765   -0.43142492517532    1.53793112430338
C         8.27820831890076    1.29264567908630    1.36407893642195
H         0.63936885399326    0.33439619344634    0.78120156346110
H         0.71854723839840   -0.65994231334516   -0.72930687253568
H         0.79034753641785    1.04516689874314   -0.79249976729721
H         1.69429022162006   -2.50175157562600   -0.03598715358624
H         3.17235029836789   -3.16517698797731   -0.32893973014216
H         6.09260472827684    1.98168893025226    1.50638270699760
H         5.58294193770441   -0.51315397515343    2.49708536479509
H         6.99192972639082    0.13090925246351    3.39469514678879
H         7.89441495057686   -1.97686472541564    2.02824257587130
H         7.73734709005160   -0.95152461397451   -0.55694318820352
H         5.71009504303004   -2.73851455179613    0.65625683906613
H         5.91853313628596   -2.33698545335781   -1.08787226193039
H         8.62565274820359    1.63890042336380    0.38903335401058
H         8.73077464332837    1.97935126537787    2.08428719974694
