30
 energy: -45.977549589860 gnorm: 0.104830669186 xtb: 6.4.1 (79825abcba525fcdf90b791dcacef51065a7a4e7)
C         1.21960659811669    0.24373154720630   -0.51837497447617
C         2.60016232605611   -0.04138296795541   -0.03821759561440
C         3.13087335010208   -1.30511554549150    0.16075925175665
N         2.46462835732008   -2.47378314085260    0.21558907067770
C         4.52806205634751   -1.21282081336062    0.29283921281696
C         4.99377389339128    0.05257073313567    0.05802706675652
S         3.79527010474136    1.20487577625848   -0.18998026046283
N         6.33412041595726    0.32221352316603    0.14525890763241
C         6.78531680369321    1.15517347125057    1.29932452897898
C         6.87333872184410    0.22904883942266    2.52988172968298
C         7.63615866392818   -0.86771206104832    1.79127262393466
C         6.90732049277407   -1.06498149296355    0.45149502721008
C         5.72200406070966   -2.08065742784411    0.40872106671410
C         8.80563149361209   -0.04642423945033    1.29986244311308
O         9.98210511306090   -0.37674779511213    1.27929976823297
C         8.27270023638061    1.32442338496115    0.95296700564424
H         0.77342118228312   -0.68310659838168   -0.89111343868368
H         1.35712254001236    0.99817936166384   -1.29935022956112
H         0.59725281532403    0.49909646219068    0.34614562131843
H         1.49984992275097   -2.54223953267742   -0.09268601320085
H         3.00041643084194   -3.27530941823028    0.53450865317662
H         6.07563835180501    1.98272408467995    1.37496893723144
H         5.91261173149913   -0.08175513345557    2.95285976083039
H         7.52968167786922    0.61280693935904    3.31900924572807
H         7.77192447679319   -1.76003014101094    2.39917564252864
H         7.67047444559408   -1.25612282887873   -0.31345794678569
H         5.67079172738103   -2.69958884777668    1.31058267316769
H         5.88500788606567   -2.71860394461117   -0.46673054093476
H         8.43190568470547    1.62505316086138   -0.08414399051860
H         8.84648874209193    2.04908032108523    1.53667913208824
