30
 energy: -45.969444451206 gnorm: 0.124624704898 xtb: 6.4.1 (79825abcba525fcdf90b791dcacef51065a7a4e7)
C         1.16237118686006    0.19679412081405   -0.42916270116052
C         2.61114432088392   -0.07616840948219   -0.21863109568414
C         3.22603112802270   -1.29742552263398    0.00207584256707
N         2.56297472937874   -2.46629336433536   -0.08024707349113
C         4.61270341037673   -1.09617549120201    0.12347788223699
C         5.02954638993617    0.20716047136605    0.09523649577907
S         3.72813901675697    1.24647621166254   -0.13255221781216
N         6.35967405449682    0.45078438881695    0.31490306903419
C         6.78535718615644    1.05857931508785    1.61052924860244
C         6.80010303417354   -0.15064178162362    2.56828320878765
C         7.69103317805829   -0.95530626404572    1.62537243847643
C         6.91192805383527   -0.97800219190559    0.29962567903396
C         5.75154285260834   -2.02284401906312    0.31425765488610
C         8.81976647030379   -0.00086819576291    1.31124903590659
O         9.95409694745306   -0.24202009916668    0.92554604142065
C         8.26689857491045    1.40312610679680    1.39317884470411
H         0.57657087564677   -0.37727680721846    0.29494014781530
H         0.79836638019408   -0.14520176013014   -1.40310512261017
H         0.96822133824311    1.27387378710949   -0.38293936973819
H         1.61254185367479   -2.58423367822968    0.25633088879093
H         3.10780686449249   -3.23068654413763    0.30715968045743
H         6.22472869329538    1.95090364095300    1.89976724634756
H         5.80181163166079   -0.52606624007120    2.81521769205684
H         7.13720356867110   -0.06842999716991    3.60769797474754
H         7.82804795146037   -2.02916627360978    1.73610475390063
H         7.67270599632498   -1.03663432737323   -0.48896245756381
H         5.66314164373892   -2.54068704224776    1.27502664901259
H         5.93790959002817   -2.76290841016672   -0.47157548925475
H         8.49417828473032    1.81675265118221    0.40901377573981
H         8.83470923050093    1.95427450027037    2.14743827715673
