30
 energy: -45.973697600876 gnorm: 0.122637948139 xtb: 6.4.1 (79825abcba525fcdf90b791dcacef51065a7a4e7)
C         1.10499203028853    0.17236521752289   -0.15126813733869
C         2.56780625017852   -0.10652127304162   -0.16440516028117
C         3.25712668306684   -1.30780552515093   -0.15995919001525
N         2.58778097622953   -2.47571030303348   -0.13451042223191
C         4.64903682471658   -1.11966404999590   -0.08723363675122
C         4.97557801544944    0.19295101142627    0.12169896655035
S         3.64935144680240    1.22512756535824    0.08347963184619
N         6.31474494606043    0.46060980475569    0.23049386470245
C         6.84655210984994    1.19568589561542    1.41628991926775
C         6.82085341657651    0.13606099782345    2.53712014826055
C         7.55975554756859   -0.90362425496608    1.69843046138270
C         6.96133198436073   -0.92716827167389    0.28193503301114
C         5.84113173991944   -1.98820908109333    0.04163068476214
C         8.82054391682322   -0.11207149258199    1.43858185725157
O         9.94564617477786   -0.55444033785262    1.61769463413189
C         8.34265812970030    1.27470739216887    1.07520202006200
H         0.72488467209707   -0.10251257485831    0.83716747724170
H         0.48374476847051   -0.45929542864367   -0.79398206491357
H         0.95030484240296    1.22357582636821   -0.41765037866387
H         1.86026737761155   -2.76885332518104   -0.77895470241182
H         3.19452058559777   -3.28993230195067   -0.12299673548633
H         6.32926877387711    2.15092448024478    1.53521353248255
H         5.78785070585559   -0.20535026027724    2.65897924587388
H         7.36605995785798    0.40391892660363    3.44914019247414
H         7.74802233138196   -1.87123798704809    2.15939608066829
H         7.68809685938893   -0.99233611362485   -0.53761241931086
H         5.76358038562769   -2.68808174218100    0.88021120059498
H         5.95239335254844   -2.64645678539870   -0.82686940675550
H         8.41482005777711    1.79188692699482    0.11674396005772
H         8.89293701100061    1.91158125677637    1.77281625145787
