30
 energy: -45.978543711728 gnorm: 0.110588918123 xtb: 6.4.1 (79825abcba525fcdf90b791dcacef51065a7a4e7)
C         1.12040256920118    0.17362644363589   -0.16422185217420
C         2.58548353105562   -0.07234666078478   -0.06024722649822
C         3.24465671952871   -1.28984840906440   -0.09828007751564
N         2.67695869072822   -2.49568264784478   -0.28895158749714
C         4.61820035288380   -1.13719184483592    0.16282127650556
C         4.95994723945132    0.18757128098329    0.20092642020271
S         3.66930850025728    1.26350784294933    0.15257126785683
N         6.31623974228263    0.37577086542478    0.15736980376359
C         6.83567461460566    1.17901523782494    1.30377892783659
C         6.75339836996474    0.16034976949575    2.45932080429117
C         7.59099406014278   -0.88202138890999    1.72296627002240
C         6.92914639397251   -1.01605507458289    0.34125826393599
C         5.77149478723739   -2.06072051137641    0.25807629735223
C         8.82795277301105   -0.08129408760615    1.38765549547285
O         9.96848684104920   -0.49160115801729    1.54404225968763
C         8.33304287277719    1.28591242697049    0.97609026007443
H         0.59774721748503   -0.60247565794962    0.40282425378284
H         0.70905027677363    0.16701856563793   -1.17850492798436
H         0.76165124821092    1.16017379421235    0.14875289321980
H         1.77133835631669   -2.46853028549789   -0.74680729263684
H         3.22775469780602   -3.23193925772989   -0.71996545063075
H         6.21751484593950    2.06311908814009    1.47826247351373
H         5.74620915240885   -0.25323209002109    2.57345148255364
H         7.17256271168247    0.44402371139118    3.43123075478006
H         7.92171294538158   -1.78493259725711    2.23246247823515
H         7.70925308058932   -1.29837124609268   -0.37695005708625
H         5.72466931406327   -2.74479683098232    1.11183282064849
H         5.98475212083989   -2.61139661267233   -0.66454970250391
H         8.65186730225581    1.55242519244133   -0.03318958051061
H         8.92321582223444    2.05403744193859    1.48280579526739
