30
 energy: -45.972352377571 gnorm: 0.135997015399 xtb: 6.4.1 (79825abcba525fcdf90b791dcacef51065a7a4e7)
C         1.12540299661448    0.22046724541840   -0.17730298650454
C         2.58247603638843   -0.07426522631078   -0.08872175951297
C         3.23386010547348   -1.29527395218163   -0.03301919159787
N         2.66951543776288   -2.51664839093543   -0.08233916433734
C         4.62737883735918   -1.13393865168261    0.06785953418352
C         5.05983515436171    0.16256029787295   -0.00502581641736
S         3.74782091101104    1.20878556618974   -0.10380516791841
N         6.38477869616923    0.47939301021612    0.13984395850034
C         6.75206272945924    1.13556209133936    1.42973254343712
C         6.64134749424792   -0.03559195682231    2.42766344116562
C         7.58285817854070   -1.00451366054517    1.71698029495592
C         6.97924277229523   -0.92275953595591    0.30485810481053
C         5.85290906531234   -1.96243962753148    0.00679763057392
C         8.77362155070019   -0.10475452407689    1.47995609861367
O         9.96107157527848   -0.38404752252422    1.40522637769714
C         8.27127494984646    1.30561684445354    1.27483199172787
H         0.63890010018488   -0.28098769232362    0.66466034289437
H         0.75296872018946    0.01470415783680   -1.18575664737592
H         0.90578364594874    1.26989312336041    0.04720544979844
H         1.70829473928174   -2.61915029540937    0.22760505517375
H         3.15926047865061   -3.17900623001298    0.51150834866162
H         6.18742458976673    2.03911048356872    1.67261049392984
H         5.60174021148348   -0.37864529477000    2.42158144722562
H         7.03512263053622    0.28227526519344    3.39961003067345
H         7.92549139713309   -1.97984578358580    2.05689167182375
H         7.64750268988749   -0.93615229248197   -0.56539551826675
H         5.82027336886951   -2.75067366305155    0.76618899772881
H         6.07442101017469   -2.53765370179476   -0.89875348586032
H         8.41538623354153    1.66154242406406    0.25313106393970
H         8.69769072215401    2.02814588803761    1.97569014568718
