30
 energy: -45.973822668040 gnorm: 0.115194410905 xtb: 6.4.1 (79825abcba525fcdf90b791dcacef51065a7a4e7)
C         1.21336770855051    0.18562733329780   -0.57977006148871
C         2.66099695162632   -0.10694663400796   -0.38860060471425
C         3.18157473693101   -1.32495699094264    0.01601753632730
N         2.51551403420472   -2.49295082263667    0.08549019095275
C         4.47093921246011   -1.12555499456406    0.54125857490897
C         4.90011525531161    0.15815188299937    0.33841665136070
S         3.77954567234668    1.21602204368465   -0.33311933618820
N         6.26242225761222    0.30285284145048    0.34360063069153
C         6.88716759070897    1.14268180597218    1.40832997311723
C         6.96132143835545    0.17390940804419    2.60653988645862
C         7.73416321850942   -0.85575355850452    1.78627655577155
C         6.85144601924616   -1.09609823788753    0.55008516248292
C         5.62035559568648   -2.04255051408477    0.71454433676909
C         8.84587807309268    0.00216416687098    1.22794722233952
O         9.89370363574175   -0.50349165127277    0.85378087316687
C         8.34807884290454    1.41322702764751    1.01658749019063
H         0.72349377205241    0.04380640255399   -1.54773428313171
H         1.05079359832638    1.25048653473106   -0.38568486814436
H         0.71194355211320   -0.39785706475691    0.20000627803260
H         1.74047193036646   -2.74012488063409   -0.52174289795217
H         2.80580411702616   -3.29470926964819    0.63697732497018
H         6.34095664331124    2.07387387003667    1.57786040687511
H         5.97011586296736   -0.16035230555128    2.92947409275109
H         7.45452283833881    0.64038262880122    3.46673388592847
H         8.15762778405163   -1.68698869041400    2.34657641877091
H         7.40982772415501   -1.33139751401713   -0.36475699799837
H         5.69841824942758   -2.47090709353890    1.71926822857722
H         5.61790459277446   -2.85264150346470   -0.02282136156267
H         8.44203992948706    1.62727915646961   -0.04956300034202
H         8.84928262856591    2.18734103117961    1.60363353503600
