30
 energy: -45.977206804285 gnorm: 0.114933154105 xtb: 6.4.1 (79825abcba525fcdf90b791dcacef51065a7a4e7)
C         1.02181133057292   -0.10522958867512    0.06660778266796
C         2.50946944497857   -0.08642914906881    0.13214861354993
C         3.41042992811486   -0.68553883391656   -0.73249241309269
N         3.14511435002950   -1.52564625490283   -1.75057888537954
C         4.73655228767895   -0.30895313900097   -0.45377612837932
C         4.83926710982378    0.40589752422343    0.70884095494324
S         3.34220982160390    0.83092326531967    1.34437118026554
N         6.13945011007757    0.70215380868497    1.02285052286152
C         6.61737984245393    0.07940574588313    2.29290407081438
C         6.83283256788200   -1.41520883469457    1.97757388201289
C         7.75885392387223   -1.11098900791539    0.80273052259430
C         6.99540048593890   -0.04679516711741   -0.00334310719959
C         6.03549808569828   -0.66292715959402   -1.06981913211579
C         8.83528734181008   -0.26607561260964    1.44388326326883
O        10.03564286179832   -0.33465493621255    1.22463414579090
C         8.05980844940995    0.59483186359086    2.41395862736581
H         0.59323170882141    0.88451931339676   -0.11713388228371
H         0.67892921766115   -0.54752965644824    1.00726023113784
H         0.63616225114499   -0.78212221289622   -0.70347178257840
H         2.22422881525128   -1.92628812221627   -1.89881256963396
H         3.92557084059821   -2.15861780603577   -1.89706324332398
H         5.95326189603974    0.37325599085614    3.10948536683840
H         5.95784542097144   -1.96679859732755    1.61889280567389
H         7.22319798179034   -1.92406595191178    2.86608830581278
H         8.17009272095476   -1.93002035147448    0.21597646138165
H         7.77213413440173    0.50638093835440   -0.54627320703259
H         6.24026609007869   -1.71253081721291   -1.30530898155552
H         6.30340977367804   -0.20969919828865   -2.03042797200056
H         8.04425789658915    1.58494967812989    1.95488482012955
H         8.48310412673220    0.71914464395054    3.41418254533489
