30
 energy: -45.972845087243 gnorm: 0.123656258503 xtb: 6.4.1 (79825abcba525fcdf90b791dcacef51065a7a4e7)
C         1.15955525646548    0.27179645073421   -0.32505385702236
C         2.60622573398820   -0.07443487542766   -0.39607555148168
C         3.23278700687555   -1.30349434580222   -0.27319327264975
N         2.59974279964930   -2.48000151227352   -0.10658359019464
C         4.60393625860398   -1.11220567494089   -0.02528521600263
C         4.96953928585250    0.20274439867908    0.07709153080843
S         3.66736141894173    1.25600034824110   -0.06682082116493
N         6.29934694170979    0.43108368290711    0.31440648582176
C         6.78539320670721    1.01848389568296    1.59814634180613
C         6.89809710700442   -0.10821104976559    2.64580185898370
C         7.70822329530887   -0.93380759171683    1.64960505017120
C         6.85802784186587   -0.99421915931185    0.36951032330027
C         5.69758457753372   -2.03882007297819    0.34537077693677
C         8.85674319323882   -0.00407640102117    1.33311438249670
O        10.01051052388305   -0.30577402489408    1.06585764521154
C         8.26571710037507    1.38459310248632    1.40966876769267
H         0.74519409257041   -0.32352671770740    0.49405512019953
H         0.55160502831867   -0.07712027064073   -1.16569537621229
H         1.01026664700711    1.32922313860645   -0.08114182969766
H         1.63562300994046   -2.55750316354821   -0.41477802799419
H         3.08935867318549   -3.34533794343632   -0.31320436135843
H         6.18159092210455    1.90652745121669    1.80064837253981
H         5.95393318125909   -0.57333957233631    2.94699254164146
H         7.54486569498836    0.24732324039886    3.45577986196143
H         8.03602776740598   -1.92719865057700    1.94948577507221
H         7.52568128309844   -1.04517157543178   -0.49981975659284
H         5.55486109108758   -2.50823075625172    1.32431758256821
H         6.01325393113248   -2.90413734342083   -0.24753771419939
H         8.58891211683632    1.68460407902848    0.41123886856267
H         8.65068501777948    2.02363180510359    2.20873698936333
