30
 energy: -45.979045489947 gnorm: 0.111045120146 xtb: 6.4.1 (79825abcba525fcdf90b791dcacef51065a7a4e7)
C         1.19059923584943    0.27412796271765   -0.36648580225325
C         2.61169835280537   -0.10986044567039   -0.14108412378470
C         3.23171859725965   -1.34832205618210   -0.13373276742450
N         2.59415250048801   -2.53287265190982   -0.18870785088071
C         4.61836897600444   -1.16980002033792    0.01933803781253
C         4.92809358747687    0.14245599347717    0.25448712547937
S         3.65917699393875    1.24006433623039    0.15040706339300
N         6.27055649261857    0.41524906419835    0.26941696305633
C         6.81270611347037    1.15591026928370    1.44702587921464
C         6.88842692067521    0.08624774602737    2.55599575841894
C         7.63473335352567   -0.88099610518200    1.64068804295114
C         6.88285829932626   -0.98852379983325    0.30343486026470
C         5.76793074803991   -2.07922939343191    0.22793505035315
C         8.86037313540521   -0.06334797633551    1.30464779466117
O        10.03562168568721   -0.39752637408425    1.33189328715823
C         8.31366309418985    1.33939683063599    1.17430001453799
H         0.54165743655518   -0.42802076396973    0.16540336005834
H         0.97885768099131    0.02614485630440   -1.41132761637459
H         0.99735634828144    1.31725846867461   -0.09359881980370
H         1.62267262150249   -2.51642309705939   -0.48277170579933
H         3.06655786844461   -3.40604242210592   -0.40232133105948
H         6.26230456204712    2.09592071914095    1.53445649046815
H         5.87804869130200   -0.23220263082279    2.83209552016228
H         7.44699506588258    0.32366146530882    3.46836353305781
H         7.80818615673922   -1.82093330634376    2.16092087607841
H         7.61956346985891   -1.09053320304104   -0.50338087337372
H         5.56682779093348   -2.68474010717075    1.11786066945771
H         5.90197045079149   -2.78385734651908   -0.60001084075095
H         8.47927417988406    1.69213273733648    0.15475393139944
H         8.69885514006886    2.02344119191423    1.93508328324360
