30
 energy: -45.974952948725 gnorm: 0.115280618453 xtb: 6.4.1 (79825abcba525fcdf90b791dcacef51065a7a4e7)
C         1.03138971183902   -0.00864807622015    0.13938969526969
C         2.51243902062133   -0.01128151898096   -0.01637198902778
C         3.32910327079912   -0.98708248714351   -0.56330731089760
N         2.87887583075374   -1.95092979648014   -1.38851424731866
C         4.69981718328891   -0.72383069076303   -0.39027002019873
C         4.84619023234945    0.31473429686253    0.48904673943788
S         3.43009949290611    1.08874278066722    0.95949752500118
N         6.15180893380047    0.62589506051843    0.76360894029443
C         6.68443524265747    0.52804564226676    2.15501208348491
C         6.86639224621733   -0.99937263271939    2.27167746540265
C         7.80454438416702   -1.10212881794428    1.07183001428155
C         7.00219507118993   -0.37738402845341   -0.02183581630799
C         6.00495582193029   -1.27206610743747   -0.82399553751002
C         8.90758991993259   -0.15910073574813    1.49331900505323
O        10.10167838243125   -0.38680659196346    1.36710703488329
C         8.15063517562505    0.98655393314696    2.12424713382210
H         0.58381430138361   -0.04207419039879    1.13718893527518
H         0.64943260876044   -0.81951832000113   -0.48880035369880
H         0.64473686605923    0.89078511131513   -0.35198682397687
H         1.89108249206588   -1.85596875501288   -1.60243948179635
H         3.43262075847491   -2.32946600633453   -2.15094449452725
H         6.12799994674709    1.05013635539550    2.93732064094976
H         6.02647735254214   -1.67877741079244    2.09431341368610
H         7.25301755406351   -1.36054115613044    3.23129028986725
H         8.20114098839062   -2.03379378959374    0.67318037912717
H         7.68592060443583    0.06140985784634   -0.75944775851610
H         6.05588329539623   -2.31328446841277   -0.48884788653195
H         6.29659186230617   -1.21107066907545   -1.87812530792256
H         8.13060029289587    1.76775491443684    1.36224483870879
H         8.58491356353738    1.29428766998434    3.07912043092689
