30
 energy: -45.982811069753 gnorm: 0.104967160721 xtb: 6.4.1 (79825abcba525fcdf90b791dcacef51065a7a4e7)
C         1.09772472081469    0.08298286481394    0.01519315995457
C         2.57304700071766   -0.06138281700543    0.15787607806022
C         3.29152212666156   -1.04926821864284   -0.49491960195684
N         2.76303618962066   -2.03104806599317   -1.24956112145051
C         4.67194001529737   -0.81997943397712   -0.35359321186310
C         4.97613666283941    0.36193482261323    0.26590929007440
S         3.61184030357980    1.10878916238294    0.90358482357864
N         6.30648882223379    0.57422633205326    0.51478888709343
C         6.64796756254363    0.67632443816124    1.96469793044921
C         6.74348732739138   -0.78869857679254    2.43831094430144
C         7.69991696751564   -1.16989567880885    1.31125580500026
C         7.04216486047167   -0.67231219104431    0.01321989669314
C         5.93939981922969   -1.47863498096225   -0.74318950669782
C         8.77422615959467   -0.11771280646638    1.46104014763561
O         9.96562242340534   -0.22335292277098    1.20995892241760
C         8.11160134362545    1.14397143250930    1.96368976789800
H         0.53775010426592   -0.58959560381595    0.67178360067444
H         0.79364886287204   -0.21876620693217   -0.99203565683656
H         0.79094636507541    1.10419631781181    0.26607458857537
H         1.75847932629948   -2.10640929928097   -1.37487467207372
H         3.35592029830574   -2.81489928205149   -1.50507764468056
H         6.09463266213778    1.42369197397990    2.53869085732253
H         5.76494539983931   -1.27873211004866    2.46709844287872
H         7.27838871387729   -0.93636100123110    3.38322094934060
H         8.03319553112914   -2.20581526973851    1.30880246051866
H         7.85335814039506   -0.51463351608452   -0.70871843449032
H         5.98238146779586   -2.53188821167690   -0.44677182158866
H         6.19647422213207   -1.40610846447686   -1.80555208489375
H         8.34141699106214    1.98510371918989    1.30717997192597
H         8.54640622676714    1.40063280211250    2.93330331853101
