30
 energy: -45.977347948351 gnorm: 0.125378583810 xtb: 6.4.1 (79825abcba525fcdf90b791dcacef51065a7a4e7)
C         1.07681271985416    0.22475190476690   -0.24418005782304
C         2.51764392998484   -0.11982404387304   -0.09236261074040
C         3.23393943661970   -1.30272310766410   -0.16941343239263
N         2.60409133548075   -2.49113577988026   -0.22974224607973
C         4.60583903005104   -1.14961092862045    0.09993432678826
C         4.97711085666308    0.16158717490076    0.22704464212716
S         3.64554715216908    1.18080470407909    0.10931706540345
N         6.31574097981972    0.45257462888981    0.24257875720264
C         6.85642024239697    1.19403278925729    1.42036215132663
C         6.82941717389573    0.10888952593173    2.51647376917338
C         7.65699912330803   -0.89493783143750    1.71787441616911
C         6.93376860575987   -0.94404261364247    0.36153717295388
C         5.81068920956020   -2.00851389217994    0.15178511054463
C         8.91014715459694   -0.11097611217782    1.40372728367800
O        10.07102453860963   -0.47864793762914    1.29976670453283
C         8.37521247729800    1.28866146875768    1.20767897180675
H         0.63211940735136    0.33555902195639    0.74930573055628
H         0.60937980379014   -0.66463707089590   -0.67836692645338
H         0.89590903056177    1.03783335056815   -0.95558977674834
H         1.65827344598300   -2.49812348555522   -0.59838432272812
H         3.04009973812407   -3.25740684217023   -0.73367509760180
H         6.24817983990378    2.09634074498632    1.52080910747988
H         5.81745928652071   -0.17340216040521    2.82430249617599
H         7.38205726558138    0.42258131427829    3.40920272776950
H         7.70273766392418   -1.88251299903004    2.17264171042479
H         7.56974074218220   -1.00578968077816   -0.53054959159877
H         5.63166049859304   -2.71946803947205    0.96513998481694
H         5.99889957124674   -2.65496098230441   -0.71230088836080
H         8.43725313549134    1.81945334489190    0.25597796377255
H         8.89138378912673    1.91505459453837    1.93999011583889
