30
 energy: -45.974073025480 gnorm: 0.125712509376 xtb: 6.4.1 (79825abcba525fcdf90b791dcacef51065a7a4e7)
C         1.09397237828618    0.15271448102121   -0.49684994563553
C         2.55069452910943   -0.08913366731390   -0.30385838822711
C         3.15039050595990   -1.27704510610495    0.08019553475328
N         2.47960910746266   -2.42695436715556    0.28127728497205
C         4.52663541321317   -1.14486718847443    0.33822458175339
C         4.97404185065140    0.13635360756330    0.16062668418959
S         3.75646097560007    1.15264902550916   -0.39647876980831
N         6.33682799008400    0.27648009816669    0.15571594953574
C         6.93133600929132    1.22193736297709    1.14664418566672
C         6.87419821833460    0.32073001069224    2.39735851219924
C         7.67976329283699   -0.82576937222555    1.79161413758393
C         6.88566860271662   -1.11022367041283    0.50568111057612
C         5.64712751123830   -2.03975482342385    0.70665413321127
C         8.89634553424169   -0.06252559659575    1.32145355474332
O        10.01616765579627   -0.55003138181868    1.36576154763558
C         8.44092436359496    1.30681567882665    0.87304365771692
H         0.61105022401893   -0.70666620438419   -0.02219702248986
H         0.82958542641358   -0.13869043225338   -1.51822511479369
H         0.68862333217069    1.11981186740997   -0.18007531179578
H         1.54454078716687   -2.25659138085181    0.63784560946188
H         2.92598394518135   -2.95407099010981    1.02567002110944
H         6.29527484874677    2.10920916308897    1.19543535952795
H         5.83470068296693    0.18032925244341    2.71078854873916
H         7.46151160713669    0.74247829762238    3.22074782943469
H         7.89218411427155   -1.71517162727319    2.38157264472705
H         7.41615130839753   -1.36879621575876   -0.41942450054290
H         5.78655107664284   -2.38529335667658    1.73632273463286
H         5.61857126597212   -2.92838168489871    0.06674130319076
H         8.80513186118472    1.45775385052749   -0.14474533605845
H         8.89672355463479    2.09151554405939    1.48261235955552
