30
 energy: -45.980512387852 gnorm: 0.115807303017 xtb: 6.4.1 (79825abcba525fcdf90b791dcacef51065a7a4e7)
C         1.09079404953167   -0.27144152578199    0.37014068186977
C         2.56127135247967   -0.27021050445087    0.13461853025556
C         3.40470501194766   -0.75046373798517   -0.85343145606111
N         2.97221877570386   -1.34805345661381   -1.97971519847891
C         4.73268318522804   -0.41694393270317   -0.53196829252471
C         4.86137481347238    0.36819970030869    0.58168704718603
S         3.37530843299190    0.77040864001870    1.25663944719831
N         6.16107982764526    0.69943942232401    0.86077975820507
C         6.60923108349049    0.22423689087186    2.20339325236409
C         6.79555158141317   -1.28791218154678    1.96170005827075
C         7.82986644912015   -1.08885647835439    0.85676035213649
C         7.04393791021402   -0.14223857342638   -0.06592879038778
C         6.05230976576479   -0.86619347542630   -1.03079421297410
C         8.84671429628407   -0.21653215841018    1.55585628586971
O        10.06078379077523   -0.29741008446756    1.44131066968459
C         8.05306724154210    0.66083972096757    2.49602560359072
H         0.53765436932236    0.35154193712208   -0.33906484109472
H         1.12504416142457    0.09383443957663    1.40136563717308
H         0.65975995203743   -1.27644999946622    0.43416368892347
H         1.99258707446488   -1.20644252672691   -2.20507128151435
H         3.60517396777189   -1.29898657660472   -2.77229525856559
H         5.85997730751711    0.57058670004530    2.91954003445757
H         5.81338710264723   -1.68567193672197    1.68666187861374
H         7.22533406905695   -1.79216444087953    2.83450890024567
H         8.20720845576034   -1.96150137660066    0.32731355625088
H         7.69038237756880    0.58694382031907   -0.57040341112520
H         6.22633141428206   -1.94323920669137   -0.93729451421248
H         6.26455647215340   -0.53262150500647   -2.05238252041838
H         8.24291940406791    1.72444836170041    2.34105243108547
H         8.23181354544275    0.35377709121851    3.52987427861131
