30
 energy: -45.974252523078 gnorm: 0.111778110336 xtb: 6.4.1 (79825abcba525fcdf90b791dcacef51065a7a4e7)
C         1.03280779310695   -0.19054446339820    0.26629113673119
C         2.50963321801689   -0.18882819461838    0.07456361374657
C         3.38620816351415   -0.60974746661547   -0.91169682006190
N         3.06009832890434   -1.25753851801849   -2.04602130036453
C         4.72210195201105   -0.37419792769549   -0.54020756995036
C         4.86972922111115    0.36941091562935    0.59930651649224
S         3.38166668748304    0.60518161821588    1.34483192053630
N         6.13691921422502    0.76193880881460    0.94135474603179
C         6.62633006373895    0.23950942379718    2.25162668269359
C         6.84455396742798   -1.27514135159943    2.05685219064345
C         7.74536702353236   -1.05546098379458    0.84416981442880
C         6.99924100834436   -0.04048697832201   -0.03801390328542
C         6.05513535412473   -0.80614158076525   -1.01823831667989
C         8.84289822031892   -0.24382235309006    1.49250027847867
O        10.04768101625654   -0.31356290960158    1.29946830488057
C         8.09523809369475    0.63463266523500    2.46866446705040
H         0.45357760183942    0.00525360920830   -0.64101249439161
H         0.88304101087809    0.54571847073177    1.06222538233960
H         0.56678583179842   -1.13848160941494    0.55641193852276
H         2.17825404385474   -1.76033845329872   -2.03826400846766
H         3.79241109274704   -1.61727217667076   -2.65061430823599
H         5.84744817320005    0.53300827295906    2.95972769984286
H         5.98873027459003   -1.92669921364696    1.85302862379348
H         7.37018031405297   -1.56555836735895    2.97345106819151
H         8.02416058793784   -1.98089031987768    0.34410510964681
H         7.68697234925574    0.62811823226399   -0.57100989738497
H         6.11103331138845   -1.86991258256183   -0.76462463349089
H         6.29278309790713   -0.69122160718139   -2.08138390813290
H         8.17731331518957    1.71806358928369    2.36491014638613
H         8.54495238223939    0.40608092035510    3.43851081670418
