30
 energy: -45.978308784916 gnorm: 0.108247253228 xtb: 6.4.1 (79825abcba525fcdf90b791dcacef51065a7a4e7)
C         1.11042323278701    0.20996427185567   -0.01530561426921
C         2.55587642322730   -0.14657966150402   -0.05159881348309
C         3.29094304057575   -1.30107370412791   -0.26393546623796
N         2.66880290152718   -2.44905151043837   -0.59220592228721
C         4.66783651828461   -1.05301228936905   -0.11995647420199
C         5.00866602744529    0.23321160145008    0.20051759813088
S         3.62394749453979    1.18499375467683    0.24941934265647
N         6.33809063462729    0.50781467847026    0.38509547515667
C         6.78860816244694    1.08319075833247    1.68711096049044
C         6.75932847101235   -0.19755889143357    2.54649956927361
C         7.63397806111206   -1.01262053773392    1.59729738814452
C         6.98538131904094   -0.86953195569756    0.21022410146789
C         5.87831161548879   -1.90426075843583   -0.16678430542032
C         8.81031337900381   -0.07274456284890    1.46871761774553
O         9.93855218318598   -0.43968317611727    1.17535789312623
C         8.29683523495769    1.34581234691475    1.55596380200933
H         1.13640407521480    1.30346488546718   -0.04032103566498
H         0.62914606628785   -0.09420198999702    0.91950971289734
H         0.53625143739119   -0.08236540690043   -0.90119583361139
H         1.70985827386461   -2.38414522982204   -0.91890099060959
H         3.13248397624755   -3.21602312722772   -1.06967570280906
H         6.03925589426757    1.85933138667248    1.86112972055186
H         5.70630086077918   -0.49526270432976    2.57829860197454
H         7.19647611159402   -0.21749043379310    3.55113048511370
H         7.92053284702674   -2.01171783959796    1.91963409759197
H         7.69655420140672   -0.79472027606266   -0.62207896801665
H         5.81150200235421   -2.81432673484263    0.43850044718229
H         5.96443410486038   -2.21021865251825   -1.21508496311931
H         8.73552782007782    1.89118537270987    0.71844308710685
H         8.69107090767313    1.90462891486865    2.40883135412566
