30
 energy: -45.976863214639 gnorm: 0.116423727960 xtb: 6.4.1 (79825abcba525fcdf90b791dcacef51065a7a4e7)
C         1.24339728273230    0.28576920816209   -0.64006997886660
C         2.62712271371807   -0.00081671529507   -0.17001873800916
C         3.19736036676942   -1.24880211999499    0.01873446138745
N         2.57410440703672   -2.43650764705148    0.13526983703216
C         4.59950232430179   -1.15785228608552    0.08059018132405
C         4.97009650752032    0.15944714472189    0.10553900250161
S         3.73998903649233    1.30478219931228    0.07780290832647
N         6.31975206382601    0.28796685991560    0.30240998565298
C         6.70372709222395    0.98126584428280    1.56778253580115
C         6.86581557270339   -0.18955501868874    2.55906028613106
C         7.77680151109760   -1.00269985663221    1.64296953336640
C         6.95896571965243   -1.10353801985658    0.34447014320472
C         5.73776773827690   -2.07614644326741    0.31114272000726
C         8.80132567999152    0.04657004652390    1.27821305853241
O         9.96311563225992   -0.12308677481418    0.93896780199354
C         8.16190226056506    1.41389418162144    1.34989156437191
H         0.52607029586273   -0.46307345583425   -0.29118455491951
H         1.24859483744267    0.28240932703794   -1.73459554922680
H         0.91595433228944    1.25540616760741   -0.24953617402520
H         1.63501263526051   -2.54820424200760   -0.23371229247576
H         3.15918287645170   -3.25767726125410    0.25604501725980
H         5.90647277950939    1.70524066391045    1.75339408549638
H         5.84762454255613   -0.55508507341930    2.72693134457762
H         7.26920756630900    0.08126976814589    3.54125549981871
H         8.12513180011910   -1.97387919032904    1.98892723426813
H         7.64633302406823   -1.32562857260610   -0.48154077492586
H         5.64685679136171   -2.68684280269123    1.21548690312092
H         5.90652165158138   -2.73414786874726   -0.54822788442403
H         8.31942308589924    1.78843957765720    0.33686303405041
H         8.54930272689014    2.19157435085175    2.01337872876372
