30
 energy: -45.969379636077 gnorm: 0.124243080649 xtb: 6.4.1 (79825abcba525fcdf90b791dcacef51065a7a4e7)
C         1.08626392125396    0.25752311092853   -0.25432717792268
C         2.53651346125696   -0.01828324324765   -0.05815683658447
C         3.25211339144159   -1.09762290455226   -0.54928705465932
N         2.67756381721719   -2.22543578803600   -1.00820290391634
C         4.60770683429402   -0.78692712308812   -0.33968126642551
C         4.85778648902109    0.33216266972510    0.40753923225691
S         3.45686234648554    1.17512282606904    0.79812313410338
N         6.15952157046480    0.46914927320424    0.81197226473735
C         6.67030426642501    0.38251410816139    2.21228058638152
C         7.12578618212742   -1.07572976215754    2.42625907544379
C         7.94904773128292   -1.14807713573431    1.14277613605703
C         6.98448446527990   -0.59442300042044    0.08060421423359
C         5.89113745169269   -1.47783402993889   -0.59952785240804
C         8.87552176445440    0.02004846564867    1.38933816410437
O        10.07139426392289    0.16023880189605    1.17990485941900
C         8.03037665351695    1.08028125268950    2.05657993917271
H         0.96206724486392    1.33635510268747   -0.38752284332357
H         0.46858121215347    0.04977306203814    0.62506608198253
H         0.86479597018950   -0.35560760795804   -1.13464191018760
H         1.78654765920856   -2.04187668436412   -1.45866216306138
H         3.29579452916606   -2.63067390207106   -1.70447572018548
H         5.97248802641437    0.70713905511538    2.98808776098837
H         6.28402496380332   -1.77567829519775    2.42226010746824
H         7.74393757147220   -1.23860798407937    3.31628050758635
H         8.50910979232034   -2.05614697910794    0.92841739736770
H         7.59505405139763   -0.20150598604560   -0.74214304901771
H         5.96748404990006   -2.48703895351175   -0.18152085106244
H         5.97368571950109   -1.50284427237036   -1.69155434285367
H         8.11132053879163    1.93795367858091    1.38637850215801
H         8.53171966197396    1.25346722777996    3.01247877758335
