30
 energy: -45.971729041807 gnorm: 0.131452260522 xtb: 6.4.1 (79825abcba525fcdf90b791dcacef51065a7a4e7)
C         1.13782474004074    0.13728549152882   -0.58449933055831
C         2.53616462479351   -0.13574747916811   -0.15105468846238
C         3.19287844941252   -1.34157600984599    0.03052387592894
N         2.53556229596379   -2.50326154165699   -0.14581407912073
C         4.56075463954638   -1.10042688425057    0.25157109731367
C         4.92395097778239    0.21810117189833    0.30460371830911
S         3.57503879246055    1.21282209913198    0.17540521508348
N         6.27301312692057    0.43811461923839    0.39664189289973
C         6.86287933062144    1.15211038147513    1.56776780927625
C         6.87685633692052    0.00261059828960    2.59644688422396
C         7.76505431392949   -0.89459237548167    1.73827828135961
C         6.91682343508302   -0.95060872999728    0.45668125985873
C         5.75268756585548   -1.97787535236446    0.28960843659035
C         8.97593974316662   -0.10051400468351    1.30600474928608
O        10.11337504497006   -0.40596201359937    0.97955548375800
C         8.34715777918081    1.26852389356197    1.18792052868490
H         0.24222690512339   -0.03466768835069    0.01996820663637
H         0.93116045007062   -0.17080463014853   -1.61425409342094
H         1.16510040957362    1.21816193124030   -0.76026485852888
H         1.77330422612244   -2.41646599544395   -0.81060461083641
H         3.15828983002052   -3.21931112671384   -0.50734746635671
H         6.28752716996390    2.06653536810611    1.73209206862579
H         5.83695198635912   -0.29939555308321    2.75737268459780
H         7.45069456970869    0.23604859467690    3.50032463430593
H         7.97568539686401   -1.89208986430751    2.11886115700733
H         7.58585500757638   -1.04833551239420   -0.40757465547602
H         5.69468243235120   -2.73978098812289    1.07394793052690
H         5.80093219712110   -2.50763477065692   -0.66798698910224
H         8.43863083814188    1.55559271429811    0.13885044560478
H         8.76442022143705    2.07883994459803    1.79154353598722
