30
 energy: -45.975137108372 gnorm: 0.120935243643 xtb: 6.4.1 (79825abcba525fcdf90b791dcacef51065a7a4e7)
C         1.13536301898559    0.19189891350779   -0.53054173232015
C         2.58283022908495   -0.00144082661758   -0.23859288159081
C         3.21515157051657   -1.22073037093683   -0.06035421307365
N         2.65042836786345   -2.44163291212409   -0.00416193036252
C         4.60876197101581   -1.11276642198053    0.09551075918483
C         4.95698157758053    0.21012455467252    0.13958843019952
S         3.70280088510903    1.31024988696439   -0.06652100399586
N         6.29587069121588    0.47333879192932    0.26181696737304
C         6.75694215785543    0.97003492073830    1.59222068235648
C         6.90200402998060   -0.19108363167732    2.59745026174379
C         7.70760291187613   -0.99843738883021    1.58280129726716
C         6.88187166637586   -0.94180665003667    0.28662027662656
C         5.76006935411000   -2.02787517687331    0.26619774013847
C         8.85218943529071   -0.04898474290058    1.31423893609840
O        10.03436311559117   -0.24254514186877    1.07210998307390
C         8.23530219278327    1.32910156516339    1.37671819571366
H         0.59422305493049   -0.16080946305534    0.35252605214194
H         0.87828099000386   -0.40354413373449   -1.41223381664212
H         0.87308622109410    1.24686934623906   -0.66537362462641
H         1.64173255496997   -2.42539269907417    0.10891460528874
H         3.15293149250108   -3.29620352114535    0.21588960245333
H         6.13833628798248    1.84553845675311    1.80441389400904
H         5.94151046486127   -0.62514007082829    2.89334383201577
H         7.33949398083874    0.16299776579702    3.53766699663477
H         8.02013709919610   -1.99976266859078    1.87242187496168
H         7.56146266049906   -1.12378500992755   -0.55547948549870
H         5.74163650446472   -2.59429113141846    1.20315368033280
H         5.85179057195202   -2.81131544003665   -0.49391420304357
H         8.34785103409534    1.87117322568795    0.43607217386466
H         8.59498200547361    1.72465510172405    2.33026348161094
