30
 energy: -45.977240877639 gnorm: 0.123206369426 xtb: 6.4.1 (79825abcba525fcdf90b791dcacef51065a7a4e7)
C         1.02539727893110    0.09817050325367    0.06633484451123
C         2.50649259174638   -0.04982667609857    0.01912054402853
C         3.29092392047639   -1.01404754736419   -0.59179013447654
N         2.69045862737701   -2.03472659439343   -1.23235908598216
C         4.66421623556598   -0.77574640496393   -0.40369224383113
C         4.95228971126457    0.27770708815586    0.42122572941894
S         3.53275182817443    1.05898470389658    0.86871150665798
N         6.24106983881991    0.67077015996969    0.66900144269703
C         6.72113195592512    0.55495917855862    2.07804231006589
C         6.87785748414649   -0.97492563808187    2.19893606776884
C         7.80195852292402   -1.10004222083784    0.99033965840351
C         7.01513471721021   -0.38786113315967   -0.12268808980999
C         5.97568476088409   -1.36049465869505   -0.76450595083033
C         8.85824561934601   -0.16180085632447    1.52664656322266
O        10.06384870252499   -0.30946136274138    1.66208752013022
C         8.16675979900009    1.07495325538528    2.05187225970919
H         0.50473610991044   -0.20489786928197   -0.84695912740402
H         0.77547858330694    1.14088398526266    0.28613875229837
H         0.71960600143031   -0.49009746643231    0.93832329090891
H         1.71600412725735   -2.29774443580813   -1.12383565627545
H         3.18349645382006   -2.42911782021652   -2.02771576483407
H         6.07978545825911    1.08162034333213    2.78903338705709
H         5.93380583307969   -1.52293592741784    2.11552690218886
H         7.32091732683926   -1.28714640791102    3.15129879709279
H         8.16387703287117   -2.05921960780795    0.62536877255227
H         7.66105784778614    0.10766343562385   -0.85843992563422
H         6.05347130725367   -2.36494907151900   -0.33546770979386
H         6.21896310831689   -1.38913467511010   -1.83219363184072
H         8.42734528485796    1.99304659167530    1.52222738041175
H         8.43207300564804    1.22957793576233    3.10105331753974
