30
 energy: -45.981794079534 gnorm: 0.111064131776 xtb: 6.4.1 (79825abcba525fcdf90b791dcacef51065a7a4e7)
C         1.09423791361275    0.19643872711166   -0.43448756270402
C         2.52887809678493   -0.08467874746607   -0.15066330703051
C         3.19758067874736   -1.29437310409510   -0.06267069826849
N         2.64362098755554   -2.50567402548735   -0.25901634473818
C         4.57862147456248   -1.12825841603982    0.14525302168336
C         4.93316780857033    0.18535001574752    0.29347600043856
S         3.62612619513962    1.22873777728612    0.12403499396941
N         6.28225856623367    0.41915895365844    0.33966176095539
C         6.85529241152264    1.15913341981655    1.50299232428988
C         6.86458895573449    0.05465113079543    2.57991302471164
C         7.68795912299072   -0.89473812016071    1.71328519731200
C         6.89525525628410   -0.98349259760179    0.39842109797217
C         5.73216789825983   -2.02531904634924    0.38332786215404
C         8.88015188123940   -0.08217208399624    1.26375516642929
O         9.98944885023446   -0.50674016938744    0.97595515121014
C         8.35652386448532    1.33487269059414    1.22669826018907
H         0.55956728638304    0.50456393181311    0.46896722392992
H         0.71444353023444   -0.63604571507325   -1.03511256944679
H         1.09986720807130    1.14902474258053   -0.97530135488496
H         1.89433139365187   -2.51195158228682   -0.94388347244373
H         3.24443155776399   -3.28396038687075   -0.51302418777591
H         6.38849828195133    2.07237515218898    1.88021693800044
H         5.85240186185875   -0.27234421736214    2.83886710662117
H         7.41995941687794    0.36667219655892    3.47153239889887
H         8.02934976644234   -1.85816778509348    2.08673630060750
H         7.45071128505099   -1.23426294782019   -0.51408911363932
H         5.66956390939280   -2.68295234688222    1.25662759180641
H         5.87111006058492   -2.70941032117716   -0.46087341223860
H         8.53988121633370    1.78832038573913    0.25094770938178
H         8.78103957250436    2.00437080161834    1.97945285242028
