30
 energy: -45.974051019674 gnorm: 0.112809535462 xtb: 6.4.1 (79825abcba525fcdf90b791dcacef51065a7a4e7)
C         1.08200315119036    0.14327781362806   -0.03529425139157
C         2.54962496729345   -0.07805087947545    0.08667092841860
C         3.34478605720993   -0.99743112875621   -0.57720034418896
N         2.81856378568450   -2.05320982221107   -1.22611816894776
C         4.71290916929349   -0.71584287842225   -0.41273986651659
C         4.92411712236067    0.31750054285644    0.45951745020559
S         3.50627227631917    1.02339178272431    1.02268668519118
N         6.20443679374900    0.63947056857823    0.82552624696739
C         6.59215129601285    0.22105110176926    2.20533442188651
C         6.93878878392889   -1.28015535148680    2.12821514550381
C         7.83351651959076   -1.03094329313428    0.91673761719737
C         7.04003375440293   -0.22404207227148   -0.12461721952179
C         6.03585372905137   -1.05533468089593   -0.98425518638911
C         8.81817910229623   -0.08357856094146    1.56218633411708
O        10.02585272613682   -0.20665626972878    1.42075448520754
C         7.96936110960691    0.88671286575239    2.35061386258599
H         0.44772581229134   -0.70589460097058    0.23607789411842
H         0.90581441996406    0.64513933483309   -0.99191176257515
H         0.75461845520477    0.88483159227096    0.70148836276708
H         1.82843354933237   -2.08177247695372   -1.44825231611044
H         3.31596139873922   -2.35755643763791   -2.05749758570279
H         5.84241803896989    0.59048302199302    2.90934132740587
H         6.16308955574404   -2.04650334080575    2.03070948264323
H         7.46170590307778   -1.63381320211748    3.02390617128671
H         8.39765862348674   -1.83760126649249    0.45278005816282
H         7.66230872114417    0.33470178708088   -0.83501937305955
H         6.30831183347845   -2.11495583196847   -0.93927928906844
H         6.00652269652909   -0.79533048386565   -2.04797464804119
H         7.97878355084925    1.88337002261867    1.90574354901751
H         8.20554593148022    1.02474223588438    3.40903032359888
