30
 energy: -45.975458524966 gnorm: 0.124994608127 xtb: 6.4.1 (79825abcba525fcdf90b791dcacef51065a7a4e7)
C         1.05551213885427   -0.01232391145530    0.08176059827674
C         2.53528102207283   -0.17410619722850    0.12519138035878
C         3.31934560932825   -1.11183769239034   -0.52609091847988
N         2.88230705956814   -2.21790911225426   -1.15718218754010
C         4.66448703368632   -0.70484886113215   -0.47082180245626
C         4.93151235462971    0.42471399304267    0.25445435494897
S         3.49325383491706    1.10423560856589    0.79795123916674
N         6.24471209870344    0.60563435890411    0.60031542459121
C         6.71479998373194    0.74267130951206    2.01081401020376
C         6.85348424473114   -0.73013675917402    2.44822550857184
C         7.70583966660473   -1.19457979163459    1.27004679600376
C         7.02017986263959   -0.58805734947300    0.03427758499701
C         5.94102688666079   -1.40186339823868   -0.74773963650677
C         8.77937048275846   -0.15829576124798    1.50944475121221
O         9.96994142618319   -0.43320040918441    1.48505343509876
C         8.18001323183043    1.18221424834893    1.86634698880975
H         0.57658032293738   -0.46822396498579    0.95343933944772
H         0.64237600170279   -0.31449211881887   -0.88572967440160
H         0.87778204266879    1.06643156242359    0.14980472404525
H         1.89266172573774   -2.09177096078508   -1.34482162372194
H         3.36902397031313   -2.51662866688338   -1.99688228769448
H         6.01925317243596    1.34865357085389    2.59665166914141
H         5.85783205726417   -1.17863085276536    2.52591500333448
H         7.48651582215895   -0.90281720208875    3.32585361319463
H         8.00308234415238   -2.23992591002753    1.21429463818321
H         7.85744322030390   -0.24246338313606   -0.58511481042902
H         5.82854477311832   -2.46501967418135   -0.51088580228944
H         6.25870078606097   -1.26910655002173   -1.78765333440147
H         8.36529400124728    1.97731786182683    1.14191262363956
H         8.62935793866552    1.52819006672644    2.80094361362669
