30
 energy: -45.977506683378 gnorm: 0.124668942437 xtb: 6.4.1 (79825abcba525fcdf90b791dcacef51065a7a4e7)
C         1.14715377337043    0.11826604659371   -0.32871068149230
C         2.60341284600441   -0.01376390846721   -0.04648147361087
C         3.19142179178892   -1.26753819652937   -0.07018440776456
N         2.64024955231549   -2.48340047526932   -0.24500141499017
C         4.57493884487397   -1.10947538585588    0.12729162146800
C         4.96579828329413    0.20154525690622    0.16845056879702
S         3.71645975262377    1.31405461502663    0.00351958375130
N         6.32236811988415    0.39264029122161    0.17527629729751
C         6.79853841836583    1.07229934220230    1.41648273220985
C         6.75968776736778   -0.02545379839201    2.49960526323641
C         7.62677888863782   -0.94529662261465    1.64382238093011
C         6.95588361306080   -0.99946310428261    0.26103898994985
C         5.76152334269303   -1.99488867922201    0.11600850467069
C         8.85303240127293   -0.08022936203789    1.46598720993358
O        10.02190477129339   -0.42024118371453    1.35756203022161
C         8.31021749775053    1.31979459865744    1.29610401642117
H         0.56179815187296   -0.52068332871342    0.33923158370929
H         0.99055248481953   -0.21017824706564   -1.36100177754861
H         0.81479543071466    1.15293189460324   -0.19110294829711
H         1.66891581797770   -2.48189956169681    0.04999996214755
H         3.22063032029760   -3.23306987476885    0.11883501130106
H         6.38338906400896    2.06352739672980    1.61478448606162
H         5.73522987255959   -0.39667929050902    2.60535753613089
H         7.15753113359643    0.40911802191912    3.42353523486749
H         7.67726625155295   -1.93398798935291    2.09565246828415
H         7.73553470655696   -1.27376887601056   -0.46075916639070
H         5.69022014220438   -2.62256831974331    1.01042862841167
H         5.89734422844605   -2.53582854024392   -0.82680555390999
H         8.45548151697343    1.68758952529297    0.27877952319247
H         8.71213589755168    2.06198128584114    1.99087110361106
