30
 energy: -45.971044328444 gnorm: 0.122729101447 xtb: 6.4.1 (79825abcba525fcdf90b791dcacef51065a7a4e7)
C         1.16611884022978    0.17841706831491   -0.54146815114148
C         2.57283246276835   -0.06005964461059   -0.11478164774596
C         3.17161069453603   -1.30887472992594   -0.10093137079075
N         2.63510705233156   -2.52281510395485   -0.32717355121953
C         4.52951871982802   -1.13500364660463    0.22148871184889
C         4.92187630268304    0.15575121152317    0.45224334470413
S         3.66909811309818    1.24651029079158    0.19433350065135
N         6.26244506852392    0.42877875099738    0.38029226025872
C         6.87426962874422    1.18976737685775    1.50982092793717
C         6.91310870247568    0.08119501681388    2.58186784593034
C         7.65985418122993   -0.87944882156446    1.65999107604231
C         6.84913366396827   -0.98611560919106    0.35750160761374
C         5.70096449547207   -2.03971333014783    0.25729301866666
C         8.87554059982572   -0.08477528346365    1.24254061828045
O        10.03367715369775   -0.46363911272980    1.14868650479872
C         8.36238053694093    1.33389830585455    1.15532018742788
H         0.31383584273415   -0.14760185767675    0.06216231592627
H         0.99021713891466   -0.18866985610504   -1.55750472083529
H         0.94048455678621    1.24849289000538   -0.60438302586485
H         1.76314628704074   -2.85137807291430   -0.72997389002133
H         3.26627557093224   -3.29639434555814   -0.14163527832599
H         6.25691490894767    2.05877388148930    1.75045856163334
H         5.91968796059704   -0.24148481827930    2.90973800434120
H         7.64464969162692    0.29976198346455    3.36790529041954
H         7.93871281484570   -1.88015476922982    1.98408286124465
H         7.46701962278575   -1.10934341923120   -0.54089913958054
H         5.63862342675703   -2.63782191018150    1.17240664428843
H         5.71530502825578   -2.68761411180072   -0.62587203812098
H         8.46644683140482    1.84163086734808    0.19474654615915
H         8.79332113570320    1.97661415417746    1.92751661382389
