30
 energy: -45.977016506445 gnorm: 0.112068925948 xtb: 6.4.1 (79825abcba525fcdf90b791dcacef51065a7a4e7)
C         1.13370345607436    0.23140399241173   -0.56208908510469
C         2.56350464486599   -0.08262262621119   -0.28853561479581
C         3.18770410998600   -1.30442819964636   -0.09924111236273
N         2.53937791831548   -2.48260619769151   -0.03410581235018
C         4.52861426083551   -1.12588932495992    0.28570548487606
C         4.97593461654256    0.16406006668668    0.18991726719869
S         3.68163712469610    1.21515473331356   -0.02390536718816
N         6.30453990653482    0.43541066839917    0.38491091861465
C         6.81334218657625    1.03273402466650    1.65518376190839
C         6.94032181338276   -0.16878863769241    2.61432152303845
C         7.80614751970680   -0.95079200910355    1.62987305616372
C         6.90124169198401   -0.97547311504827    0.38662701535659
C         5.71617910382302   -1.98776974636769    0.48298360203042
C         8.90236298012273    0.00184440259330    1.21218898265978
O        10.05772094401360   -0.24450621909232    0.89900202892273
C         8.25380088819331    1.36650919268774    1.23734230379550
H         0.52677125760052   -0.32805647888560    0.15602068927440
H         0.87060972717576    0.02924513778760   -1.60513174945121
H         0.94099795572439    1.27943320317131   -0.30825701216435
H         1.66304388772391   -2.45605257747584   -0.54581945338273
H         3.15320390331803   -3.25878100905497   -0.26212620254857
H         6.12067286393136    1.75596596085170    2.09261996784923
H         5.93540196207902   -0.48236333093890    2.91484258564426
H         7.45262462999375    0.14520753169581    3.53068981577182
H         8.25115753725995   -1.86791611823831    2.01073984000111
H         7.33795979681412   -1.19067766732268   -0.59676323191702
H         5.60236490935795   -2.46727520549297    1.46082514629252
H         5.71755222579939   -2.76932201267213   -0.28456820181114
H         8.28241593450420    1.90006072915877    0.28559242677422
H         8.87370480552924    2.03957966326951    1.83548616639502
