30
 energy: -45.980015432272 gnorm: 0.110782585540 xtb: 6.4.1 (79825abcba525fcdf90b791dcacef51065a7a4e7)
C         1.11139509458313    0.15951737560249   -0.47764248915621
C         2.55890956123424   -0.09583576475289   -0.23832606179820
C         3.22597027303428   -1.30914153569239   -0.20389634327500
N         2.64615089876758   -2.47444568563804   -0.54820524562632
C         4.55886694574929   -1.16804552132128    0.22222387578576
C         4.90255603813414    0.14999322421763    0.35598471959969
S         3.63463980375413    1.22209398721242    0.09385030705389
N         6.23893841066876    0.42564531575164    0.47822921648123
C         6.87447515276234    1.17446597211044    1.60278632440231
C         7.02054243339792    0.08107599806269    2.68115938849685
C         7.72737087748551   -0.91638260470957    1.76694275030350
C         6.87188792768499   -0.96930426207541    0.49004314499476
C         5.73913791660271   -2.04136765486287    0.41284302897913
C         8.88630879143696   -0.11204343393010    1.22512562527532
O        10.01160235731409   -0.46492791199039    0.90448001025981
C         8.33767254899169    1.29394963240807    1.14924954033887
H         0.48993634433227   -0.17598546411402    0.35798376885522
H         0.75384862848429   -0.13067268331713   -1.47060511778494
H         0.91468494357176    1.23710949900788   -0.48327282450486
H         1.63809345152786   -2.43622151543123   -0.66167940759627
H         2.99196727390543   -3.26561281298172   -0.01370679431033
H         6.32461924939474    2.07450847504913    1.88877166077884
H         6.01079706616588   -0.20439219751444    2.99329412033514
H         7.70473079700742    0.41777092042297    3.46811644939678
H         8.01502297306381   -1.83770987384687    2.26955826428402
H         7.46093247384131   -1.06259908018796   -0.43105112630006
H         5.68072454548716   -2.66219430067551    1.31296268297613
H         5.87283878200902   -2.60977506261867   -0.51397879232198
H         8.18395925604267    1.54419902786833    0.09802581013254
H         8.82640725569166    2.13386615119392    1.65000837709466
