30
 energy: -45.978344925591 gnorm: 0.106982796119 xtb: 6.4.1 (79825abcba525fcdf90b791dcacef51065a7a4e7)
C         1.18493434779180    0.25808411616460   -0.43871440221662
C         2.62873580012544   -0.05660897815276   -0.25383247800164
C         3.19613385551678   -1.28198206307658    0.05404174351918
N         2.48014827093050   -2.42217288934845    0.05249150259543
C         4.57262416904857   -1.22498117653648    0.33710598137388
C         4.97917938672820    0.07782963358495    0.23396967889520
S         3.79925026702193    1.21640670233909   -0.13634851394004
N         6.32780572291882    0.30587242682367    0.15619385723558
C         6.79280211553048    1.14105235154320    1.30315542004977
C         6.75249163855029    0.10780376516048    2.44792533880889
C         7.69317381267299   -0.85761221122431    1.73139815167008
C         6.94287197945762   -1.07457702122900    0.40659710919493
C         5.76033096490750   -2.08594108603863    0.53752394696503
C         8.85161757295568    0.02492204230776    1.32790623310324
O         9.95941664038873   -0.41856284011366    1.06384363304473
C         8.29209572123844    1.41035344450946    1.10187408579778
H         0.66446852777865    0.34413270396455    0.51980286167418
H         0.65197865748498   -0.56991778578043   -0.91662193101099
H         1.08688751490909    1.14135714421712   -1.07914156070483
H         1.55201420991676   -2.56358735958036   -0.33362559121544
H         2.96941981543988   -3.28490167031834    0.27051763718374
H         6.24423617280403    2.08345947007972    1.37491788526839
H         5.76597698952528   -0.32123853281861    2.65094612490280
H         7.19469030513147    0.37972345118866    3.41296348576728
H         8.00003467721317   -1.82067183716093    2.13458865439450
H         7.69848666327221   -1.23271493296730   -0.37323037511019
H         5.78634006335977   -2.49280910702471    1.55380893197016
H         5.68838141501872   -2.97551991878542   -0.09764087768286
H         8.60231295806570    1.90689133808937    0.18071218188125
H         8.62738093701916    1.94969051267890    1.99169436655101
