30
 energy: -45.977932070921 gnorm: 0.116959276369 xtb: 6.4.1 (79825abcba525fcdf90b791dcacef51065a7a4e7)
C         1.16855549541771    0.11200003171650   -0.13396467750648
C         2.61863543287960   -0.09820083689782    0.13222974419592
C         3.26887653213944   -1.28169719258038   -0.17564876069570
N         2.58533956524327   -2.44076831544733   -0.22041744072023
C         4.66899640271092   -1.14990629934913   -0.15575960958850
C         5.06684382393056    0.15003958915488    0.00266512956546
S         3.76861060214466    1.19586000484615    0.21848037577795
N         6.40703140861718    0.42968741485435    0.05306305390067
C         6.79832228214931    1.19455808514942    1.27418233522832
C         6.63490283920641    0.21548997788963    2.45504874375556
C         7.51570540378562   -0.83541492253959    1.78414792583372
C         6.93022146142023   -0.97500142098761    0.36892760844301
C         5.82562656720372   -2.04193652462334    0.08622286679089
C         8.79217285066024   -0.06449179784789    1.53925451771407
O         9.91899073820701   -0.53767954474636    1.53803827825542
C         8.32343253187610    1.31227492760407    1.12892379112301
H         0.61100536544425   -0.49384957020856    0.58654103599628
H         0.81071782591822   -0.19037535471115   -1.12317944451773
H         0.89721560911443    1.16027282987804    0.03165589985886
H         1.61867627214003   -2.49402861001755   -0.52577414015537
H         3.10394916410698   -3.13652595261273   -0.74785310195145
H         6.26825139756684    2.15014843447274    1.28298956064734
H         5.63967579438427   -0.23647057626771    2.51637307765802
H         6.98695992070485    0.61435837476166    3.41303539145430
H         7.67676061618290   -1.76876675852896    2.31998893650802
H         7.73846778903443   -1.17382657174137   -0.34612377960165
H         5.56912020935150   -2.71164801049585    0.91371561441301
H         6.16145757533958   -2.67640966529030   -0.74119659798821
H         8.46139390324155    1.38678111615805    0.04876669385014
H         8.85469252432023    2.08856535796007    1.68589486000201
