30
 energy: -45.980969619883 gnorm: 0.118726344296 xtb: 6.4.1 (79825abcba525fcdf90b791dcacef51065a7a4e7)
C         1.15146425257500    0.19982250605919   -0.23085734170047
C         2.61648582678427   -0.06628904307174   -0.20493206251606
C         3.22611156531084   -1.30941833697925   -0.16954443981766
N         2.57651176848448   -2.48639289687102   -0.24319128170162
C         4.61582755404427   -1.14770258043752   -0.02588679756427
C         5.01101733643859    0.16134807142603    0.03286427918142
S         3.72192402862231    1.23945508181957    0.07348160955891
N         6.35029412638294    0.38805835273317    0.21114983063022
C         6.79485392557417    1.12462904635764    1.43143594016078
C         6.74285326297284    0.00180836465329    2.48798475271648
C         7.63197144796041   -0.95001037470462    1.69184901546112
C         6.91486634065272   -1.03069852191885    0.33377167489883
C         5.77036088674742   -2.06636378649885    0.09732489634136
C         8.83430456294939   -0.07638126874609    1.41829527016984
O        10.03584934910742   -0.29980153837847    1.41872308966763
C         8.29966885587960    1.31824633557384    1.18861307158661
H         0.66665198205727    0.13481985218688    0.74780301335559
H         0.60095808168574   -0.43181882235462   -0.93512768083044
H         1.00979400867092    1.26831271917929   -0.42627886352965
H         1.61220344289330   -2.47529411855939    0.07383167571310
H         3.09166863980349   -3.22036621629401    0.23337932588164
H         6.15374901034784    2.00016270146291    1.56039690953538
H         5.72206098490827   -0.39132365665807    2.53198731156776
H         7.21523086348235    0.30459673332713    3.42923775180335
H         7.74563113173057   -1.97141011274150    2.04966749973194
H         7.63394559339617   -1.07448721213905   -0.49393578000534
H         5.65677463630171   -2.68020192668776    0.99696600830540
H         5.99883615176044   -2.58569445596345   -0.83972168538280
H         8.66009994200653    1.88940008318094    0.33117695278296
H         8.77468299557490    1.89330619105893    1.98783050870289
