30
 energy: -45.977930721216 gnorm: 0.114163830308 xtb: 6.4.1 (79825abcba525fcdf90b791dcacef51065a7a4e7)
C         1.11014461734383    0.24607089635733   -0.44866921066757
C         2.55587707932711   -0.07576378026226   -0.29356989986300
C         3.23887432846467   -1.27616182707918   -0.18952392064513
N         2.71285793901573   -2.48891455593855   -0.44488728292141
C         4.59319922082318   -1.10249851579647    0.14773736217718
C         4.99004133712872    0.20467062473527    0.23179347868701
S         3.65898886697712    1.21560674816364    0.05281436200795
N         6.34130153628403    0.40399442926056    0.33767786843170
C         6.82413104032898    1.13077188912694    1.54926285679137
C         6.91812717879945    0.01509758442688    2.61047033790912
C         7.72818131824826   -0.95440285225213    1.75361366053924
C         6.90126997934775   -1.01674447119059    0.45844744241040
C         5.71060348911718   -2.02696974784079    0.44577659712971
C         8.83636947975140   -0.05628357945654    1.25464958078658
O         9.93968630346733   -0.44917807998001    0.90543250007322
C         8.31269359440041    1.36120122898934    1.24594385910168
H         0.50748560582063   -0.41355525182856    0.18278928490972
H         0.57617266285423    0.16003991464834   -1.40024535380038
H         0.82898956203747    1.24797014766283   -0.10649805894177
H         1.71609033029519   -2.54095216835485   -0.62999187350506
H         3.23646881896783   -3.26558986698702   -0.05267549043659
H         6.20755993450168    1.99139652642624    1.82013354751554
H         5.96320811636594   -0.37697493696210    2.97504489695191
H         7.45152072233876    0.27763386121372    3.53098358241239
H         7.87460783691800   -1.96692614224223    2.12451240297905
H         7.64008386415104   -1.11949362874132   -0.34634365218653
H         5.59973066056636   -2.39380438869707    1.47154108585669
H         5.83608691786573   -2.76184934246453   -0.35682384977212
H         8.38981957791869    1.86464419250646    0.28058349529725
H         8.82817538444738    1.82837732370866    2.08921475417195
