30
 energy: -45.972702200230 gnorm: 0.113027661553 xtb: 6.4.1 (79825abcba525fcdf90b791dcacef51065a7a4e7)
C         1.20224878179158    0.31646713656299   -0.25527577104908
C         2.63783104087962   -0.07594303448635   -0.20148426827122
C         3.22679264719397   -1.32949113969038   -0.19871854928041
N         2.52778636541406   -2.47016871666502   -0.04733241152536
C         4.62398043625239   -1.18835778040483   -0.12095157519141
C         4.97231973305935    0.12716720221972    0.02497312067058
S         3.72317970696333    1.25175697196331    0.05091715616171
N         6.30292633139710    0.38688811828479    0.22214495574841
C         6.73305927609862    1.08781470128179    1.46832133469588
C         6.77202110337295   -0.05002029362096    2.50925324751629
C         7.67427231475988   -0.95190870516636    1.67088446343209
C         6.96665308342414   -0.99118331214505    0.30601930216102
C         5.83218689986876   -2.02962765511766    0.03579312528980
C         8.83959617744819   -0.02765174203111    1.40361354075525
O        10.01463569980515   -0.36306793491116    1.38349460904944
C         8.23999023443390    1.35786585459618    1.33736318765990
H         0.82343169426480    0.26551377103503    0.76988067344788
H         0.63644718405896   -0.45348075069808   -0.78919835406669
H         0.94515825314800    1.32053330146837   -0.60979935056964
H         1.57647482980619   -2.44385071725201    0.30598192228030
H         2.93832922375083   -3.35774312211224   -0.32099137112617
H         6.10058701171085    1.97836081565117    1.50166916345240
H         5.76933663366603   -0.40417624584765    2.76945183113673
H         7.28272935823970    0.06878276676816    3.47145983359916
H         7.96554759890748   -1.92610072902648    2.05859392622906
H         7.63195530493701   -1.10396928973940   -0.55928083813143
H         5.85170864060246   -2.86199160646122    0.74701910637160
H         6.03709013596563   -2.36829136334903   -0.98561919979831
H         8.47878283333146    1.94144567402120    0.44644424786311
H         8.58218556652773    1.84804335722580    2.25262771374999
