30
 energy: -45.975224576954 gnorm: 0.127135046463 xtb: 6.4.1 (79825abcba525fcdf90b791dcacef51065a7a4e7)
C         1.20281337270098    0.28560170188049   -0.73495123901728
C         2.55812494793267   -0.11791318089382   -0.26795875966335
C         3.14808507456962   -1.31165686716779    0.11307843645577
N         2.41391943491933   -2.43837768724517    0.17768405080544
C         4.53148360759278   -1.22693984346035    0.35210056869414
C         4.90676934383624    0.08788419426920    0.29177949440554
S         3.72600981097139    1.16247330915066   -0.23433001183647
N         6.26804766401005    0.23937802006566    0.32035509412975
C         6.89095990930633    1.21992173339973    1.25832223287347
C         6.91329075391247    0.29751665274759    2.49460534973720
C         7.77195931987352   -0.79758843044867    1.86710608804088
C         6.87222535158704   -1.12577746810879    0.66382094969890
C         5.65657444927029   -2.10179483343655    0.75318175025469
C         8.90606482475595   -0.04219226682021    1.21377177294263
O        10.05926857161145   -0.40009516693861    1.02495094171153
C         8.35406140085110    1.30108889251443    0.79608366671324
H         0.46463034322311    0.52591247880834    0.03600979874640
H         0.82523080199847   -0.62602762987991   -1.20864721730445
H         1.26693250253663    1.13867638985297   -1.41911765451979
H         1.49451047771308   -2.44542911495333    0.60798015743793
H         2.99783583992626   -3.12683056654978    0.64276172364838
H         6.31819071823547    2.14539356539737    1.35652085063604
H         5.90113299546707    0.00194581828209    2.78902077119523
H         7.34786514495220    0.77440579491447    3.38032564813489
H         7.99017607860709   -1.72694676946190    2.38948960793068
H         7.50347188202870   -1.44180108692770   -0.17626770391438
H         5.56453813173493   -2.53841780383898    1.75315321769809
H         5.82662066172063   -2.95718907494851    0.09034951344515
H         8.57033051688432    1.22205958837741   -0.27083053134425
H         8.89358655333073    2.15669803710712    1.21072373327352
