30
 energy: -45.976375182805 gnorm: 0.117339601543 xtb: 6.4.1 (79825abcba525fcdf90b791dcacef51065a7a4e7)
C         1.18799407820726    0.30046623362018   -0.48100432436809
C         2.57739657612975   -0.09266123569186   -0.11660454872521
C         3.20689350346259   -1.32114841890268   -0.00338289368026
N         2.64267631229610   -2.52518087311302   -0.21465920915659
C         4.59611572371569   -1.19366122030493    0.17524709253175
C         5.02828872789714    0.09630086667720    0.02536524384599
S         3.74602871464434    1.18279848301944   -0.00716530825825
N         6.38165581826104    0.26383195328401    0.15642424312854
C         6.80073998051104    1.10565131096688    1.31615551516784
C         6.80777372595424    0.09203968130383    2.47902598788412
C         7.76037914278243   -0.87935180990760    1.78673727530188
C         6.88280352761959   -1.12954846500680    0.54884105619567
C         5.66144060437333   -2.09493902661236    0.67006823419591
C         8.86898403929075    0.01457639068190    1.28121582039774
O         9.98455236564353   -0.25205371590201    0.85926514971706
C         8.29526294115792    1.40315655622182    1.11915215649742
H         0.69788901134825    0.78823090362989    0.36689132004242
H         0.56667543018766   -0.54493801215052   -0.79290066227688
H         1.28050065646838    1.00473473521715   -1.31489866797767
H         1.64534940242277   -2.39907060588033   -0.35591258323469
H         2.76897925096122   -3.17484124963649    0.55554332580275
H         6.11836069781894    1.94064094200430    1.49323305888416
H         5.80131654475323   -0.29323737582543    2.67166922802126
H         7.27467617132100    0.52239309075814    3.37209745842174
H         8.02768926745622   -1.78340992121806    2.33027590838072
H         7.46133589789859   -1.43392639854667   -0.33249112988455
H         5.32721953648564   -2.36418952595913    1.67746769367619
H         5.73126897170058   -3.01352931701115    0.07738158316990
H         8.61173830809502    1.92838163997463    0.21620928912685
H         8.70670264858344    1.89072042655145    2.00689064357827
