30
 energy: -45.971636097267 gnorm: 0.127627632149 xtb: 6.4.1 (79825abcba525fcdf90b791dcacef51065a7a4e7)
C         1.16267899507842    0.19903990515627   -0.63374362547220
C         2.55026579482807   -0.06580295107596   -0.16232360594444
C         3.14920041308176   -1.31148614971062   -0.07390994398310
N         2.53999756271426   -2.50998117538793   -0.00211553571866
C         4.49109414181342   -1.17293029839789    0.32386328776234
C         4.94741162720583    0.11032836327777    0.18872690821984
S         3.71502753650710    1.21637351330446   -0.10044371439885
N         6.30663388598824    0.26719904516389    0.25766218704973
C         6.91549184540960    1.12789063962487    1.31490859728943
C         6.88873299232812    0.11496745776805    2.47809230687868
C         7.74066521252239   -0.85715551519975    1.66598973207335
C         6.82453762296048   -1.15901996993672    0.46819489434722
C         5.59456699467791   -2.10267862554396    0.65549934862809
C         8.91940578778019   -0.00304692527658    1.26011590356317
O        10.09005101067950   -0.32652922904159    1.12382343241208
C         8.39933506364459    1.39510659463904    1.01872703100637
H         0.61519783087835   -0.62028035012138   -1.10916246528772
H         1.25204392427097    1.06305122372837   -1.29971875129647
H         0.65366986777323    0.67232047378530    0.21292430144310
H         1.53672854205225   -2.48898039891956    0.15127131349175
H         3.03353615638523   -3.06313916469718    0.69190094326821
H         6.35661037770806    2.06193349429195    1.41197085245444
H         5.91858559120298   -0.33294072804263    2.71620607284516
H         7.36034907838366    0.38185563547408    3.43052475718574
H         8.11047876020552   -1.70700802985781    2.23625165724949
H         7.25238079000460   -1.38485534702378   -0.51671152967990
H         5.54621758659517   -2.39813137540387    1.70879097155340
H         5.70497781791589   -2.97639408453154    0.00404532709468
H         8.53695399341050    1.86392831675440    0.04271929846530
H         8.86305595643310    2.03740561566413    1.77205012644045
