30
 energy: -45.972985379146 gnorm: 0.124555378169 xtb: 6.4.1 (79825abcba525fcdf90b791dcacef51065a7a4e7)
C         1.01914441559952    0.23540754708562   -0.04383188608511
C         2.48751540071094   -0.00328229196872    0.02464805797592
C         3.32521737189845   -0.76123066222329   -0.77662340105269
N         2.95685023386226   -1.62497200181050   -1.74147024196245
C         4.66332187629924   -0.49433029369590   -0.43553607376364
C         4.79168170471548    0.25174449330992    0.70469918144550
S         3.32773309194540    0.84073433478416    1.28407081382095
N         6.10352933277701    0.48169949402344    1.02566977302360
C         6.68386789439042    0.03585762854176    2.32709214274672
C         7.10833283430461   -1.41348750340256    2.01252267184084
C         7.97727334832824   -1.08693525129442    0.80065296643438
C         6.94582189609306   -0.27816996150801   -0.00379155658932
C         5.95063805292512   -0.98621984259941   -0.97676475466771
C         8.90002002553461   -0.06689713024269    1.42653249929395
O        10.11448072423672    0.03607465033143    1.33648418796737
C         8.04528390068175    0.74691119703665    2.37031084818418
H         0.60940046594146   -0.74734309886999    0.20787315960023
H         0.66458595625358    0.54293803372312   -1.03263814697093
H         0.80726868506668    1.01518122827985    0.69575789470077
H         1.97090735889389   -1.80577515611628   -1.90192009642287
H         3.37841953513595   -2.54843930159674   -1.71481586362900
H         5.95167392753523    0.12145789090385    3.13379544566958
H         6.24087603342110   -2.06086372747183    1.84842327943464
H         7.81748992379942   -1.95839422844411    2.64572997337148
H         8.51465941488263   -1.88561807475710    0.29317687541892
H         7.55167116826692    0.47446751740082   -0.52396031753648
H         6.06436377498771   -2.07516675232947   -0.99449392973837
H         6.13685469316385   -0.49203411211552   -1.93648628284562
H         7.86237035857894    1.77056740141278    2.03865669197936
H         8.48364022865731    0.75628848255247    3.37172813368885
