30
 energy: -45.971279947071 gnorm: 0.120306566107 xtb: 6.4.1 (79825abcba525fcdf90b791dcacef51065a7a4e7)
C         1.13250794835254    0.23990402322451   -0.34526687802759
C         2.58385319719564   -0.03818087553352   -0.16076357485159
C         3.19155168483496   -1.28195645283930   -0.11614119261053
N         2.56734348830757   -2.47251940003942   -0.19095357393604
C         4.54979738062989   -1.10685758546326    0.20418532126809
C         5.03000350274578    0.16585566223810    0.05304517969547
S         3.74745720560940    1.24410675053489   -0.08177188830873
N         6.36706659360043    0.35017149511800    0.28785485616324
C         6.75838158012566    1.06743596655883    1.53752371486405
C         6.80147480360522   -0.14063057729272    2.49587852751123
C         7.77862243628964   -0.91359655269748    1.61381941464779
C         6.94621246760879   -1.06738805329778    0.32985438398388
C         5.70645877025093   -2.01592852473051    0.37089231220396
C         8.89897613107585    0.05635063520711    1.31772071552417
O        10.01900927526438   -0.36521791764056    1.06986514049255
C         8.24472887917321    1.41763651826731    1.36708352845376
H         0.49289053513676   -0.08833342760740    0.47947194007475
H         0.73693863099025   -0.29146274355775   -1.21658702521583
H         1.05359135544220    1.32911020716667   -0.43090231439778
H         1.55804193648387   -2.51298852602426   -0.09000841880358
H         3.13238558776652   -3.30890110146424   -0.07952616585429
H         6.14492731264787    1.91118899704253    1.86303917502690
H         5.82196683963072   -0.57719848637664    2.71605685766974
H         7.24604099207740    0.02854472324022    3.48305593040866
H         8.18089213511839   -1.80587695426294    2.08945035741316
H         7.57362760468184   -1.10135288335295   -0.56975035975824
H         5.67058800576790   -2.47370394086807    1.36497892192575
H         5.86492550248365   -2.69640912579847   -0.47278774540078
H         8.32782430517758    1.73111909531037    0.32489943185603
H         8.53531493938198    2.15315842596557    2.12183385081354
