30
 energy: -45.975425705916 gnorm: 0.118663076493 xtb: 6.4.1 (79825abcba525fcdf90b791dcacef51065a7a4e7)
C         1.01827084094765    0.01895598362565    0.05372478283629
C         2.50324900580350    0.03121121362480   -0.05792355938833
C         3.33302522328993   -0.93487474495397   -0.60236420781020
N         2.85830534382493   -1.97736456913285   -1.30984485866751
C         4.70074031059566   -0.74728531586401   -0.33354143365334
C         4.90431704300656    0.38754138151615    0.40399849267557
S         3.46573991157166    1.07584523003222    0.93546787325666
N         6.22150530762412    0.63682631672900    0.68634174179530
C         6.72242984985834    0.62842772069555    2.09285233999718
C         6.78254991404418   -0.88507418329332    2.38512500572843
C         7.72128982512726   -1.17226151522873    1.21610276979018
C         7.01642655995582   -0.49546478971081    0.02856820372616
C         5.97859758904431   -1.37945596588853   -0.73292571221161
C         8.86446055589394   -0.19886691556116    1.38735702096809
O        10.03994852649639   -0.23237403003037    1.05459287390960
C         8.22597663209548    0.94027060072468    2.14780386660047
H         0.63593477494259   -0.79899728651129   -0.56418779213188
H         0.48043721760230    0.92370871510514   -0.24657842069403
H         0.77486274399754   -0.22598955546322    1.09328504860405
H         1.95375459575128   -2.05149221187498   -1.76460889615872
H         3.57992115000390   -2.45833840199434   -1.83819870018224
H         6.06267343984757    1.20723087354715    2.74393913728860
H         5.73510306699699   -1.15129576636564    2.21051957296932
H         7.16639719995147   -1.26402723046343    3.33897743265318
H         7.99320254969639   -2.22006234501196    1.10480628003020
H         7.63924442252272    0.01624921831205   -0.71597107536252
H         6.24304623410066   -2.39245855168284   -0.41207385482780
H         6.10762393542073   -1.36055136398832   -1.82056370671059
H         8.51771115754509    1.92770520609569    1.78560539082573
H         8.66875195063044    0.79410151184652    3.13657350503045
