30
 energy: -45.976319036376 gnorm: 0.118637402921 xtb: 6.4.1 (79825abcba525fcdf90b791dcacef51065a7a4e7)
C         1.04245614349413   -0.02933839165564    0.07740544410747
C         2.53143895381993   -0.03843479143804    0.05244249824532
C         3.28839929509838   -0.96116453926696   -0.65030008279538
N         2.85330004475738   -2.06036316715903   -1.29460117227377
C         4.65573388567013   -0.85065634192451   -0.34000329684096
C         4.92213776470058    0.28334149828216    0.37854950386805
S         3.53958768792656    1.05865486990155    0.93816589278571
N         6.21795393428090    0.69315598686734    0.55105498964614
C         6.70617468981605    0.78757959027302    1.95888760221062
C         6.76755539403180   -0.70966340892138    2.32525020329897
C         7.71322388450364   -1.14723281628295    1.20964888989123
C         7.02071518487397   -0.49104293329109    0.00342713892660
C         5.97024354251495   -1.48817264428137   -0.58022003897464
C         8.84250459527652   -0.19901857580930    1.54022295929375
O        10.04341357721108   -0.42547203607543    1.52745109772519
C         8.20044023337253    1.13127109527143    1.85906171565926
H         0.59270933279107   -0.38341142418987    1.00982405741663
H         0.69447682662782   -0.64454539456610   -0.75833091389135
H         0.67177006521804    0.94441126013996   -0.26072887265355
H         1.85654195130806   -2.22826447397245   -1.38840813194449
H         3.43299983879925   -2.47686735148249   -2.01688601942651
H         6.15889455673741    1.51036964882982    2.56902251591412
H         5.81619613490169   -1.24628071137328    2.25133594859921
H         7.28567151864461   -0.92487612088522    3.26653537355256
H         7.82424144496434   -2.21959887102096    1.06160780677818
H         7.76117174412573   -0.12276458482872   -0.71781290314128
H         6.09123935508376   -2.44777596257519   -0.06682475379799
H         6.16928255804491   -1.54933885227337   -1.65567517629420
H         8.34606242797791    1.79604087513444    1.00571584020474
H         8.61275679294183    1.65894929036722    2.72314016118303
