30
 energy: -45.977153907240 gnorm: 0.107643971669 xtb: 6.4.1 (79825abcba525fcdf90b791dcacef51065a7a4e7)
C         1.12603815203760    0.16712425710551   -0.07843898517852
C         2.59124441211189   -0.09655107542178   -0.11614063407721
C         3.23096835670684   -1.30696756528894    0.09340928701332
N         2.70308008305392   -2.54535335322440    0.11358959511924
C         4.62041918649163   -1.09595079918624    0.14816352213835
C         5.02007829443296    0.20112490656222   -0.02820889067444
S         3.70961955620836    1.21104573601147   -0.32567095648068
N         6.37446041529866    0.39562153674395    0.04009596418131
C         6.86080891195711    1.22969602024862    1.17897822824446
C         6.66721785541123    0.27664903615942    2.37645460446558
C         7.52399956096201   -0.83518704789988    1.77639811749399
C         6.88086805014868   -1.00713540879835    0.39005762748816
C         5.71061215928499   -2.03563852939915    0.49534180631878
C         8.82173982178153   -0.15636472013160    1.40392687149270
O         9.96930558350035   -0.56665424732469    1.49548007218698
C         8.38980882591348    1.24197723448483    1.02756164515770
H         0.56542239023222   -0.77216277290956   -0.10066890054397
H         0.94844061280473    0.66591874617155   -1.03639913908426
H         0.90468558335992    0.80179282986581    0.78650619675599
H         1.71831746077134   -2.51290897107669   -0.13076092508260
H         3.31329152507312   -3.34182833781861   -0.04291127427591
H         6.39535880509089    2.21840639347445    1.18266564520200
H         5.66030111885802   -0.10668465070609    2.57056758401079
H         7.06485436611162    0.71386390054471    3.29922595336285
H         7.71904370204950   -1.79267307716886    2.25534309242765
H         7.64443985187824   -1.24062753524734   -0.36262527637326
H         5.53918206646645   -2.32810226611968    1.53655737423963
H         5.71063743604926   -2.89185586029683   -0.18792491258253
H         8.84850031316951    1.55783290385821    0.08885978921726
H         8.84518093893328    1.89161796494394    1.77968127341891
