30
 energy: -45.977158015375 gnorm: 0.136621657008 xtb: 6.4.1 (79825abcba525fcdf90b791dcacef51065a7a4e7)
C         1.12914877523319    0.25241735114748   -0.07662266441233
C         2.57899841570091   -0.08069902003297   -0.14550813563966
C         3.19485589919551   -1.31831161726584   -0.23095344559154
N         2.58088924013032   -2.49886174492881   -0.43593933485773
C         4.58474040169284   -1.14063683561371   -0.10949240652632
C         5.04214348048011    0.13385590141976    0.08973346075612
S         3.74545406099238    1.19650088648757   -0.03318206078032
N         6.37715187151383    0.41331083871667    0.21819801311349
C         6.81195858417026    1.14272843170866    1.44627011495133
C         6.66578866211881    0.00974262582683    2.48294907321243
C         7.63626992970666   -0.90208733592677    1.73658830065928
C         6.96842049103821   -0.99329243213929    0.35427750467406
C         5.77834178417989   -1.98091366939026    0.13813096444750
C         8.87679374105535   -0.07257450955785    1.49852626731143
O        10.04843406539657   -0.39036875924067    1.35748570809264
C         8.33260728678439    1.32642030150564    1.32460091321245
H         0.71103847671964    0.47360048307772    0.90994014608047
H         0.50348072040160   -0.52238082676338   -0.53077219148698
H         0.85487149305593    1.12375389848015   -0.68116874616748
H         1.75997599725183   -2.63447438638231    0.14563434284630
H         3.17297499111136   -3.28596469170396   -0.18870180637678
H         6.30016380385271    2.10063343668413    1.56747131114112
H         5.63094180705722   -0.34246404531836    2.54251696611946
H         7.01126299137986    0.35745899288028    3.46300999893811
H         7.72421812209251   -1.94186550040309    2.04535439490068
H         7.58807585107503   -1.12645049142525   -0.54148374691811
H         5.64735426500789   -2.61649129709538    1.02013809625432
H         6.08190205047706   -2.69135432688781   -0.63845568721847
H         8.62592414926036    1.77207821001725    0.37240444476245
H         8.61094996220215    2.00218231280180    2.13759036066157
