30
 energy: -45.971439445866 gnorm: 0.121192382929 xtb: 6.4.1 (79825abcba525fcdf90b791dcacef51065a7a4e7)
C         1.13353901034863    0.24393607926338   -0.63483280751244
C         2.53582941990814   -0.01359054403631   -0.20467312428540
C         3.14229994934523   -1.23618459457627    0.03138530099127
N         2.65183853451367   -2.48892391927929   -0.02119482919894
C         4.53277227859668   -1.09173858525440    0.18572939676358
C         4.92862518282209    0.21821348996149    0.20952677913136
S         3.66585215555582    1.29330794032701   -0.06488580479936
N         6.27481607276909    0.42220698761020    0.36119208325007
C         6.81136479194781    1.03725886875299    1.61142992373084
C         6.95548732123354   -0.19463081915512    2.52870972973666
C         7.78805132399045   -1.01926444693683    1.55037505651916
C         6.84869341884100   -0.99783270089972    0.33288921150235
C         5.66857257887677   -2.01869333438998    0.39256105745660
C         8.84657956335227    0.02266590372770    1.27187281808859
O        10.01247620420006   -0.20036693658623    0.98106695844183
C         8.28370148770436    1.41966961776550    1.39485371772774
H         0.48320834368720    0.12849189846221    0.23739826066331
H         0.74640511054898   -0.53448291520510   -1.29982584318726
H         1.19574541866874    1.25697352939841   -1.04692121097890
H         1.68670057112879   -2.61404479295305    0.26754514125484
H         3.28048701333609   -3.28423503743993   -0.08039201748953
H         6.14502328395905    1.81408148011079    1.99449813599704
H         6.00442808592710   -0.73418865900522    2.58227795515333
H         7.43257664250324   -0.04678784707253    3.50405932786501
H         8.17678021828711   -1.99870731959679    1.82202100913694
H         7.46315094702399   -1.20926236501798   -0.55132314960948
H         5.72224040244973   -2.60947133518694    1.31297094439482
H         5.84748653680045   -2.77290760096466   -0.38146234671827
H         8.47217174347934    1.78067688815617    0.38219554160202
H         8.83255403041705    1.91071107847793    2.20276457594841
