30
 energy: -45.978606651731 gnorm: 0.119375329514 xtb: 6.4.1 (79825abcba525fcdf90b791dcacef51065a7a4e7)
C         1.10915999654260    0.26556673421511   -0.31949176791866
C         2.56194574217392   -0.03223422683138   -0.18346281680362
C         3.19442550607856   -1.26296828780167   -0.12405481021141
N         2.60493763612178   -2.46726921404234   -0.24585881890769
C         4.58039111347568   -1.14716093779099    0.08520113732962
C         4.96278763310937    0.16559170593398    0.14597671651526
S         3.70936444361220    1.26278921006267   -0.07944289655153
N         6.31123393340846    0.37636607163790    0.26477216018111
C         6.80592529030564    1.02390565561181    1.51586805711193
C         6.83694913208010   -0.05274902193745    2.62021310086132
C         7.73164069337437   -0.94414984240473    1.76274370768983
C         6.92783216256966   -1.01318648021900    0.45344994065542
C         5.75435620849528   -2.02840648120422    0.27827888849703
C         8.88941163075271   -0.04712965905192    1.39047279232336
O        10.01676321782072   -0.40696824524717    1.08515121564863
C         8.29255468673766    1.33724753010519    1.28637190639986
H         0.57606646285824   -0.20138185973536    0.51406366955728
H         0.72328216500925   -0.16694269324135   -1.24796277863647
H         0.72020605734219    1.28833327390366   -0.37043113323554
H         1.59412300388287   -2.50940097944899   -0.32950084701363
H         3.20673990813668   -3.27906219090438   -0.34610439360468
H         6.26096083932702    1.91621625600829    1.83367486572612
H         5.81482484294038   -0.40583108265714    2.79080291084335
H         7.44548277713860    0.25893809225638    3.47655213905462
H         8.03509582074948   -1.92646889691525    2.11935873651263
H         7.61887117394277   -1.10012410671416   -0.39448813952794
H         5.68093560962340   -2.60315743998348    1.20743118440498
H         6.00522798384767   -2.69083960117767   -0.55730911351823
H         8.31347687960684    1.89443093831855    0.34805811064627
H         8.64837085673691    2.08457805789768    2.00049564828400
