30
 energy: -45.976055782220 gnorm: 0.127603507232 xtb: 6.4.1 (79825abcba525fcdf90b791dcacef51065a7a4e7)
C         1.16986956074140    0.20500842496378   -0.49899217354454
C         2.60703713211496   -0.00306693642986   -0.16879570709628
C         3.17891434944159   -1.26332742772291   -0.22325871420414
N         2.63133263349941   -2.44747109191557   -0.55587100929056
C         4.54041473411480   -1.01249050612161    0.02472835387010
C         4.92866274970671    0.24208308758076    0.41014870522055
S         3.62315076848321    1.29962213678014    0.35559897394075
N         6.26895401955501    0.52153867927111    0.45882615819344
C         6.75557662419421    0.92944746920072    1.81015026711983
C         6.91204552704558   -0.42167700271949    2.53795923180602
C         7.78969587713440   -1.04076046216031    1.45316076883167
C         6.92029817863216   -0.84068390300189    0.20046711554574
C         5.75169180115304   -1.86376618030535    0.03902317522128
C         8.89669966343552   -0.03330533827470    1.24521564215458
O        10.09001595549544   -0.21435710591164    1.05326992709733
C         8.22635132509307    1.28719363664160    1.54603280996129
H         0.77710781389836    1.08756211864557    0.01470185934366
H         0.48351106791796   -0.58288401999284   -0.17316700914259
H         1.20845244852046    0.37237818608734   -1.58085634450447
H         1.67020373095440   -2.69911944164657   -0.34749241231401
H         3.19301912164559   -3.27357654787320   -0.37344005534906
H         6.07616336848019    1.66053256446719    2.25525456516823
H         5.92233623681935   -0.88925240353680    2.55679142378483
H         7.31652695877075   -0.30904133025876    3.55012847616029
H         8.22981278057139   -2.02217185111590    1.61850530171246
H         7.46219861314605   -0.84096482184531   -0.75370052917977
H         5.67134040264408   -2.62195819452730    0.82498866657128
H         5.91824670080537   -2.35946132164343   -0.92352935794395
H         8.29348057341036    1.91063462659608    0.65264663200887
H         8.78528075711708    1.72248961603994    2.37861678936101
