30
 energy: -45.969910308895 gnorm: 0.128561680431 xtb: 6.4.1 (79825abcba525fcdf90b791dcacef51065a7a4e7)
C         1.13726046218497    0.20495613100461   -0.35389236586406
C         2.58487869898808   -0.07177452122460   -0.14035713583720
C         3.19561427792591   -1.31341972678967   -0.08047789912664
N         2.54762258059491   -2.48505082402892    0.06115617857355
C         4.58945555307895   -1.18288064069393    0.05467423447138
C         5.00248500071661    0.12098924891079    0.10537199675356
S         3.73458319034706    1.21873765858916   -0.00908100250723
N         6.34208059008319    0.37134063280040    0.24556281755577
C         6.85468605310685    1.11079888092334    1.43707662004619
C         6.83269805591071    0.03514868269367    2.54261672742595
C         7.67205957320878   -0.88992048558770    1.66509666943126
C         6.92518197132360   -1.04273304092299    0.32945204939504
C         5.75341113544413   -2.07298826743980    0.26676520475049
C         8.84524387860006    0.01098394214008    1.35578422976465
O         9.98823366959337   -0.40501915881500    1.23686227272965
C         8.34668034100934    1.43454655215017    1.26370109733369
H         0.48482527000516   -0.47162326945113    0.20611925118130
H         0.66214838001188    0.16486256679750   -1.33912611855959
H         1.02569627752026    1.27716955122235   -0.15935912854303
H         1.61937278323910   -2.42694429784331   -0.34565241018139
H         3.09576477383582   -3.24504206530429   -0.33022142683393
H         6.19145589299055    1.94614249007475    1.67484213256646
H         5.86344142768482   -0.45777384854629    2.66940337596576
H         7.10783917106079    0.28884705463533    3.57252599911954
H         7.99639354238475   -1.82381538236244    2.11991291468571
H         7.60787069656711   -1.21717609900785   -0.51173626595098
H         5.72189235560428   -2.80443104796283    1.08104480461112
H         5.73642966619749   -2.60958989630296   -0.68808132763232
H         8.59587123698383    1.93560007677481    0.32659217473604
H         8.66222888746552    2.18990142465143    1.98823468268341
