30
 energy: -45.977632854207 gnorm: 0.116464562864 xtb: 6.4.1 (79825abcba525fcdf90b791dcacef51065a7a4e7)
C         1.08512527320305   -0.08759709497666    0.28495577422550
C         2.54381990366921   -0.00117115631621   -0.00230061527438
C         3.34974913652343   -0.88337247373191   -0.70263281783650
N         2.85756405522835   -1.74198011535772   -1.61544147965131
C         4.71114964519522   -0.66640023194382   -0.42404394338944
C         4.90284017346150    0.39230392653276    0.42191144587092
S         3.47659406276333    1.11723161799269    0.93769040519763
N         6.22426414470263    0.60173813421337    0.71656653173680
C         6.60484374854826    0.44913426624263    2.15223335063038
C         6.79670289259513   -1.07965848108974    2.22778830375449
C         7.82671239984989   -1.15306144322980    1.10350426852440
C         7.05587609151642   -0.44899148587989   -0.02575268034468
C         5.98424853582150   -1.37774214675565   -0.67954083735942
C         8.85596992863423   -0.10851121817640    1.46848118745957
O        10.04335431334745   -0.18518877885255    1.18943719880247
C         8.05668911723528    0.95064516674433    2.19160866124844
H         0.88172712273262    0.89750085434840    0.71536905235163
H         0.75434930143640   -0.86220867184258    0.98394696733040
H         0.52407718059192   -0.28992739111104   -0.63385805749471
H         1.90760560528077   -1.93389598198865   -1.91754170578896
H         3.56668339799774   -2.32962966000700   -2.04327410877477
H         5.93018091660758    1.01660110879355    2.79800194020825
H         5.93365472248331   -1.71084771310351    1.99272683002906
H         7.16694853929160   -1.49304264781715    3.17267469612092
H         8.20405941947513   -2.10400843203445    0.73266863465028
H         7.71595984599602    0.14392928017277   -0.67137366785290
H         5.92448111633782   -2.31161354473908   -0.11088866152542
H         6.26888789549312   -1.57646002490043   -1.71850822753339
H         8.26171639459020    1.96615746374862    1.84806469309759
H         8.40344961279461    0.93455472241628    3.22822770329650
