30
 energy: -45.985232246532 gnorm: 0.119273169168 xtb: 6.4.1 (79825abcba525fcdf90b791dcacef51065a7a4e7)
C         1.04927771833805    0.12186907827768   -0.14293351556311
C         2.52653894391122   -0.06633738684570   -0.13563202257728
C         3.21366310501910   -1.25821323423817    0.02423867783496
N         2.73543407796101   -2.46328831001573   -0.33875434662103
C         4.60912883094496   -1.08281317548746    0.02744455183586
C         4.99202984060798    0.22822488995695    0.11579777052772
S         3.65967658915966    1.24165844666330   -0.03754274344322
N         6.34597605696186    0.43615386800114    0.13679344152055
C         6.89305936421963    1.15042301443843    1.32834178013573
C         6.73704497215731    0.12584695968984    2.47098309240113
C         7.57864454907259   -0.88206200831724    1.69242555479627
C         6.95984618827003   -0.95932439024059    0.28663627721157
C         5.78120390993610   -1.97660610602960    0.16687545075881
C         8.86796776429267   -0.12310595299814    1.47959759175437
O        10.00511260925437   -0.56886910669662    1.52229991331837
C         8.41579099225619    1.28605841593651    1.17403686366986
H         0.60060312713712   -0.87559391577485   -0.17127185228181
H         0.64920536744827    0.67695389997760   -0.99724463181498
H         0.69774351605203    0.62833125643314    0.76252280020891
H         1.73139169353432   -2.61299018271000   -0.33640326923249
H         3.11916448399378   -3.29734453989563    0.09520898032865
H         6.37394125979918    2.11082978028693    1.37672428289485
H         5.69486766768368   -0.18068854583451    2.60666042452799
H         7.18132906464663    0.34146645683259    3.44919497231451
H         7.67563408601461   -1.87061008907775    2.13692048218055
H         7.71192740564164   -1.11200676046855   -0.49768125776153
H         5.73455494467662   -2.58495702770048    1.07615333282533
H         5.98370352339324   -2.64871830524054   -0.67408869615420
H         8.67951044728921    1.72105754810770    0.20834971248649
H         8.74599730548673    1.95752414126962    1.97101763758658
