30
 energy: -45.981170461593 gnorm: 0.103164676764 xtb: 6.4.1 (79825abcba525fcdf90b791dcacef51065a7a4e7)
C         1.19924688418092    0.30793224543931   -0.06361733775111
C         2.62551071729978   -0.10054182743812   -0.19283081055861
C         3.19009840774389   -1.35772812646001   -0.05502788858822
N         2.43755373941242   -2.47410279954451   -0.04747781592796
C         4.59428169772803   -1.30253128380830    0.00261471753784
C         5.04833271530800   -0.01140857408201    0.01156381595749
S         3.83265604024772    1.14150301660063   -0.12500532352083
N         6.39115841991239    0.25529611243126    0.06189613499802
C         6.80262526236201    1.22068338816293    1.12396507455899
C         6.62233651938853    0.32023741046847    2.36348867479533
C         7.58344971515205   -0.74292543235619    1.83787629924556
C         6.97113219930401   -1.10149798035306    0.47346530077876
C         5.79586056292601   -2.11490109335195    0.29981885996749
C         8.85510174620082   -0.00513810859836    1.48825455391550
O        10.00327087032068   -0.41096549572690    1.59139750574764
C         8.32918599427977    1.31637150204230    0.97776422271281
H         0.59358986009059   -0.54625722349393    0.25353293286721
H         0.77620751290451    0.65385461538936   -1.01198431880004
H         1.00141371544424    1.17361808140208    0.57777290620246
H         1.45751531169040   -2.34893382552222    0.18570601612378
H         2.85596325879293   -3.37654209416262    0.15687429532428
H         6.27550914305959    2.17598156130634    1.06264931844921
H         5.56714587965751    0.05015545461260    2.47364464673726
H         7.00171026461972    0.67066118369705    3.32995509600677
H         7.79854157630093   -1.60003657456190    2.47294007617920
H         7.79204808303649   -1.42124649728070   -0.18071361643981
H         5.71297757035374   -2.83029465068015    1.12467988633325
H         6.00552312170448   -2.69643863307305   -0.60451365044063
H         8.58964593671169    1.43182643173587   -0.07587454128485
H         8.67849854518666    2.16594202525773    1.57046267076891
