30
 energy: -45.983593721025 gnorm: 0.114353905735 xtb: 6.4.1 (79825abcba525fcdf90b791dcacef51065a7a4e7)
C         1.00574597509538    0.03846832313203   -0.03676055846638
C         2.48774141643658   -0.03278909897268    0.09125345482068
C         3.35479416139807   -0.67265290901955   -0.77883855860656
N         2.92674432784823   -1.38022914254817   -1.84128012635083
C         4.69853515368395   -0.45659768926714   -0.42418334009133
C         4.84048728042067    0.33016927939203    0.68671161235748
S         3.36179260052038    0.73959334942210    1.37341389569356
N         6.12918600043906    0.56767445158920    1.08632707123871
C         6.67333837052127   -0.04458062996207    2.33464990967413
C         7.07460007662354   -1.49772533541941    2.00741106862996
C         7.90890524496074   -1.07719941860734    0.80017662085468
C         6.95825788019344   -0.15421319389142    0.01947796404315
C         6.00335496124873   -0.80200520934471   -1.03262862564369
C         8.87293315243553   -0.10663556509301    1.44229840407308
O        10.03874825381591    0.09228730099252    1.13418882040267
C         8.08028580008129    0.53038754926033    2.56010300830234
H         0.69194152083143    0.31257148564808   -1.04841197660746
H         0.49193355642610    0.75627675746202    0.61036568650748
H         0.50373994871011   -0.93001630074980    0.06303348703331
H         1.93003323767042   -1.50973235663207   -1.98380454047820
H         3.40175249096750   -2.24272944140865   -2.08964168723401
H         5.96976618134164    0.11963866207695    3.15454247938263
H         6.27120758081976   -2.19978947515130    1.76211058005648
H         7.77272193442929   -2.01284135812815    2.67678387825737
H         8.40734236387765   -1.77831126849988    0.13368383823055
H         7.62810306655634    0.60032387126159   -0.41188417660033
H         6.12355671243107   -1.88241464167896   -1.16423497108129
H         6.16581277647988   -0.34760243219688   -2.01603452475583
H         8.12611365882294    1.60337748961357    2.36538201981137
H         8.43288157143521    0.42093262738305    3.58907172777483
