30
 energy: -45.977599198376 gnorm: 0.108069277185 xtb: 6.4.1 (79825abcba525fcdf90b791dcacef51065a7a4e7)
C         1.13791958266323    0.21615153198541   -0.05117543831853
C         2.59226237505042   -0.04605252485443   -0.23532694714777
C         3.25750159371535   -1.23901832309830   -0.00607670855587
N         2.65304249878246   -2.44097864744229   -0.05700272058157
C         4.65848312143244   -1.12975330820147    0.05233533327118
C         5.03761285445478    0.18453758292375    0.00607131240976
S         3.74581269283973    1.24595737556402   -0.16818830173895
N         6.37236341868893    0.45740459348290    0.15039778227489
C         6.71344069854438    1.09772529573399    1.45535895810556
C         6.61388620517200   -0.07273681680000    2.45527549996288
C         7.61470303637004   -0.92833782851843    1.68285414422277
C         7.00264051010024   -0.93349794965241    0.27201141276446
C         5.86373450930802   -1.98821591585581    0.10211293023967
C         8.84322219432811   -0.06982073332490    1.48958371190533
O         9.99583432353223   -0.45547218726397    1.36158016392893
C         8.23062420675259    1.30149595755769    1.32288144910645
H         0.64034046802001   -0.23102628194195    0.81455627815405
H         0.50821014687062   -0.24666162155485   -0.81752688222531
H         0.97145851892132    1.29007674039705   -0.18867718702219
H         1.64261921879031   -2.49322827176510    0.02565357272876
H         3.18712183416704   -3.25746363506838   -0.33866655985351
H         6.10982899926785    1.99725994575913    1.59921983924140
H         5.66752038297426   -0.60750484851778    2.58535535819272
H         7.08296419432505    0.13447899555645    3.42367936669551
H         7.87349837806223   -1.89138568945172    2.11848449862916
H         7.77561508614472   -1.12309865157645   -0.48340498502961
H         5.78008431083168   -2.59606970074272    1.00906918664866
H         6.06885175527484   -2.64295359613355   -0.75182329784828
H         8.41963888556427    1.81710132473705    0.37961668074564
H         8.56921011361342    1.97807244690570    2.11198513022022
