30
 energy: -45.967219272445 gnorm: 0.136819689055 xtb: 6.4.1 (79825abcba525fcdf90b791dcacef51065a7a4e7)
C         1.07505085517417    0.15473017441080   -0.08143238538523
C         2.51984146687742   -0.13094133697930    0.13935618470325
C         3.32507258690582   -0.91517240079047   -0.66987233295174
N         3.02408569576082   -1.63489813491088   -1.76717569335122
C         4.65734038461605   -0.59043232517668   -0.35729200063965
C         4.86092050758128    0.24204287566528    0.70984457282484
S         3.39357247905570    0.79391565152404    1.31651769002266
N         6.14672967940140    0.66594943697693    0.91923327852895
C         6.71833339568724    0.27971446551966    2.24337818488071
C         6.98804621732871   -1.22875694200412    2.06591057020362
C         7.81367326890091   -1.06737813087535    0.79208992993267
C         6.91749599658167   -0.18602680652768   -0.09403112031866
C         5.93778760023264   -1.08802203271670   -0.90949321550175
C         8.82786985980635   -0.10596191224623    1.36719732507626
O        10.04742411092187   -0.16287879075155    1.31174851190278
C         8.15046660727860    0.82727974165826    2.34380382514826
H         1.07666344916293    1.24033364697444    0.05460756276246
H         0.41828987704864   -0.38474143571515    0.60824864728944
H         0.77551487067248   -0.20871016741256   -1.07043222505274
H         2.02706974314207   -1.75262346974937   -1.91756594049577
H         3.38397285571327   -2.57254794384160   -1.91723256495704
H         6.09556606177467    0.75092532502797    3.00779090050000
H         6.04345660832931   -1.77458732514935    1.97466611455932
H         7.49013543062379   -1.66091214351441    2.93879481597808
H         8.21473898922364   -1.94855344368319    0.29521331178207
H         7.43738595850749    0.45751139307571   -0.81490910518982
H         5.99372342575149   -2.15150709068973   -0.65469143813312
H         6.16253605030898   -1.00086430286990   -1.97806855959053
H         8.11202680435722    1.90415829629254    2.17008327744106
H         8.49577100634539    0.73489749930653    3.37691135894022
