30
 energy: -45.973374726110 gnorm: 0.132167898994 xtb: 6.4.1 (79825abcba525fcdf90b791dcacef51065a7a4e7)
C         1.07373641926932    0.11987731397026   -0.21204618790795
C         2.55030955112887   -0.06290676011473   -0.14803452003732
C         3.21869425166255   -1.27536926947713   -0.10978706409928
N         2.75327944336961   -2.53530212732458   -0.20269104044488
C         4.59990341111496   -1.05309583759944    0.03497426848484
C         4.98263080687478    0.25837678448619    0.11743388463750
S         3.64427874091465    1.27092553479538    0.02107598308941
N         6.33699883340192    0.46459287703373    0.12022703555781
C         6.87682325790323    1.16381201447573    1.32395050352498
C         6.70264283145081    0.09284118125801    2.42049434755764
C         7.55447709662210   -0.92624823819192    1.66806008970882
C         6.93863455456058   -0.93735359805640    0.25889756854384
C         5.77501568643255   -1.95374606893699    0.03231462060573
C         8.83538887092002   -0.14172305671013    1.50238072492573
O         9.96108723397618   -0.58878613063516    1.66536684908962
C         8.40451891587884    1.27544399825421    1.20310822833167
H         0.58308636039984   -0.54845376065344    0.50184489023040
H         0.65268821103700    0.01771533629458   -1.21718591310486
H         0.84480525701442    1.10083595071234    0.21835135804244
H         1.81807144035170   -2.89076706640740   -0.03079580671762
H         3.43180637887839   -3.09402204525426    0.30589152829411
H         6.47279564650818    2.13987378719234    1.60371957815165
H         5.66441970495119   -0.23929042773031    2.52192028691430
H         7.10526318315551    0.30503625904778    3.41731364146841
H         7.56809813507638   -1.94896761316482    2.03963722046457
H         7.66593322705003   -0.98327841359735   -0.56148015381002
H         5.88906980844897   -2.67916352700903    0.84460423093975
H         6.01493527299590   -2.30500101585233   -0.97715065627740
H         8.71742852278789    1.35389746918171    0.16039230401125
H         8.75420714603830    2.03464382497393    1.90767515112617
