30
 energy: -45.978862465971 gnorm: 0.121536937174 xtb: 6.4.1 (79825abcba525fcdf90b791dcacef51065a7a4e7)
C         1.14238565920938    0.15058645466959   -0.26042880046811
C         2.56442493036170   -0.10890733527800    0.09768149500866
C         3.18527785672967   -1.33638588590357   -0.06388687378981
N         2.59072803599538   -2.53702364281771   -0.19674913407706
C         4.57221150418375   -1.10616240481835   -0.02499896940118
C         4.99551996631366    0.19226694426537    0.06517565477852
S         3.67168153188962    1.22251631020315    0.17363818301033
N         6.35449046286930    0.36324993044990    0.03672136671051
C         6.89886367230036    1.18046426518596    1.16148202684639
C         6.78694806145799    0.22942459575073    2.37091337837780
C         7.58528048031411   -0.84505710738377    1.63710373287075
C         6.91537509042354   -1.04351668382360    0.26708002672923
C         5.72211160893525   -2.03299771803224    0.07879322645015
C         8.86240636825015   -0.04493986747420    1.52563058257117
O         9.98075551089221   -0.48982459182030    1.73776133284558
C         8.42585632921805    1.33258640283229    1.08356627604480
H         1.10148265223131    0.29075890542811   -1.34473641298459
H         0.81114276876221    1.10365178819336    0.16379889830688
H         0.43802638567805   -0.67259408291987   -0.09861659638540
H         1.65497047761043   -2.56430900776151    0.19584555296265
H         3.16320456173286   -3.34573565537624    0.02568848868120
H         6.31643178261620    2.09831364129657    1.27342507831711
H         5.81064533249581   -0.21676809887179    2.58597371728475
H         7.20975625820956    0.56115981391674    3.32588122011300
H         7.71602869606223   -1.72028225239672    2.27042503537999
H         7.69579395878170   -1.20402721731883   -0.48742300158394
H         5.65467663072758   -2.60117494986807    1.01243148109697
H         5.83152073899927   -2.76875892246568   -0.72535022605826
H         8.73022709405799    1.49884503539749    0.04865547080893
H         8.82627311483683    2.13472494039925    1.70912278879568
