30
 energy: -45.972492241701 gnorm: 0.121467234057 xtb: 6.4.1 (79825abcba525fcdf90b791dcacef51065a7a4e7)
C         1.04716457637001    0.18542638345181   -0.54812073714669
C         2.46369394942716   -0.05594609900622   -0.15702026135519
C         3.12796921287893   -1.26979864920647   -0.09729866305359
N         2.62270302670596   -2.51067772949899   -0.22995644573026
C         4.46490244501026   -1.10918427145207    0.30879569481468
C         4.89665106405685    0.18941060716657    0.33081293990298
S         3.62338830902345    1.22600082188308   -0.02975432431401
N         6.23939847736048    0.45494693093503    0.38882572815701
C         6.86949695811792    1.09327764162344    1.58246630121530
C         7.03989223328588   -0.05766485262133    2.59539402714766
C         7.81962136833857   -0.93616169804153    1.62041302944991
C         6.85755791303949   -0.94630813070308    0.42063999046437
C         5.66811069993498   -1.95687487655463    0.46934882210829
C         8.98088163141295   -0.04525354426604    1.24435232253808
O        10.12747235373218   -0.41103047531832    1.03183495854497
C         8.34162102917828    1.32352245719280    1.20729083932582
H         0.47403590199982   -0.48769710959087    0.09645094759306
H         0.90814399798628   -0.17474254194108   -1.57231610362258
H         0.68723002722728    1.20072275007581   -0.34924442872292
H         1.62612101186066   -2.65724366683498   -0.35589298437821
H         3.26136516327363   -3.13912978856137   -0.70784939558556
H         6.29027254401886    1.98082921812073    1.84884368185518
H         6.10478327400137   -0.37993341490754    3.06467016977356
H         7.57181286266737    0.32480174698283    3.47377796858749
H         8.17073834202131   -1.92462853437713    1.90999929520009
H         7.39879562048217   -1.19720774267864   -0.50033948177241
H         5.52902233831996   -2.43093635789002    1.44657621214939
H         5.79009331994296   -2.68773556342561   -0.33745009453397
H         8.52253187789415    1.90932072921130    0.30427615471611
H         8.95407301560659    1.96009942497766    1.85130412660887
