30
 energy: -45.976327688775 gnorm: 0.121003357192 xtb: 6.4.1 (79825abcba525fcdf90b791dcacef51065a7a4e7)
C         1.06187330006104    0.06484374938392   -0.07105490408935
C         2.54663174320318    0.04753107927494    0.04282367812409
C         3.31387291422344   -0.76004797857073   -0.78023362803524
N         2.84655551983472   -1.55408597474297   -1.76196220507650
C         4.65411529565851   -0.65522265179795   -0.36687898262285
C         4.86836184575162    0.24974211379401    0.63730101803344
S         3.45384816853368    0.95813916420759    1.20567654847473
N         6.16841556248759    0.46434509114399    1.01233638614291
C         6.70085424403342    0.15203170193285    2.37183534025305
C         7.05836181032758   -1.34677732630812    2.29777058514065
C         7.87317499333536   -1.20776298051567    1.01438573901299
C         6.95537847911383   -0.43405551495708    0.05305816830238
C         5.94384839434969   -1.16402205010737   -0.88628101863399
C         8.79288363309174   -0.05423788946724    1.34176971471488
O         9.92046295127926    0.10862533529510    0.89942694657046
C         8.07968770147454    0.82927198345549    2.33893433257552
H         0.66872648715081    0.93867911758937    0.45704707798142
H         0.49270516440185   -0.77149085727736    0.34681658931309
H         0.85652802544205    0.22072303192673   -1.13569866253762
H         2.03049600407707   -2.13608578992874   -1.60121278986680
H         3.56702193425590   -2.00466226826163   -2.31795872973850
H         5.98507194493066    0.36627747142432    3.16930639467679
H         6.09775667139317   -1.84796526194059    2.14107244452986
H         7.55714732674922   -1.72939902199824    3.19531849530637
H         8.39062314629067   -2.11390824832835    0.70558453672815
H         7.50663100691954    0.29768934745670   -0.55089726197978
H         6.27260825464743   -2.20344881380174   -0.78350844868109
H         6.16006296409749   -0.80361321538559   -1.89787299356560
H         8.00060434552242    1.82334057586663    1.89520319286606
H         8.53963780221990    1.02779800866650    3.31058967610322
