30
 energy: -45.976318254381 gnorm: 0.126804507049 xtb: 6.4.1 (79825abcba525fcdf90b791dcacef51065a7a4e7)
C         1.11834457147651    0.15368509246558   -0.21314426491087
C         2.57864370892479   -0.08470533419816   -0.04440741239868
C         3.23321179746900   -1.30479175879484   -0.00982408576893
N         2.65633881690496   -2.52115488675386   -0.02856398838592
C         4.62340842683762   -1.09216557606468    0.00577975791444
C         5.01755394274056    0.21515337573963    0.09962396779968
S         3.69050093689255    1.24364241357927    0.01675860863364
N         6.36393624724199    0.46689695933504    0.12655846873257
C         6.80136693393653    1.11520466109968    1.39841518297122
C         6.62495805335997   -0.03716348935946    2.40868905487366
C         7.63066094028768   -0.91893386403147    1.67291403458437
C         6.98426414575164   -0.92560674673559    0.27747466584498
C         5.81540244795766   -1.95525182873481    0.16794981495791
C         8.87911882967030   -0.10466089596654    1.42396259994255
O        10.05643063317011   -0.40741137822642    1.55008054384858
C         8.31588330237860    1.27924193491466    1.19778987525833
H         0.60925836077832    0.28901776004965    0.74579299673243
H         0.64524312855399   -0.61575154977465   -0.83134067355086
H         1.10755635437491    1.12897659209788   -0.71176382451595
H         1.65538421865754   -2.53650160336733   -0.19700287466366
H         2.97474911757145   -3.23868825723219   -0.67275629561083
H         6.27949622410387    2.05190289722771    1.60925398535046
H         5.63231147155262   -0.47446777091825    2.26062280457323
H         6.78700237036452    0.27057679422329    3.44783108516241
H         7.73084175909067   -1.85998870044275    2.21011941024290
H         7.75933018480650   -1.11059969672797   -0.47694053703811
H         5.95526907713245   -2.68998387898977    0.96773689882643
H         5.92341802211947   -2.51054487750943   -0.77010340913128
H         8.58016423281351    1.65986270406887    0.20955544605147
H         8.70540700465801    1.99517488265284    1.92634466497430
