30
 energy: -45.977651525119 gnorm: 0.131265009635 xtb: 6.4.1 (79825abcba525fcdf90b791dcacef51065a7a4e7)
C         1.13305571079221    0.13711906134150   -0.18292276793892
C         2.59931175281519   -0.12091554989294   -0.14704731404287
C         3.25118111814355   -1.34285929866698   -0.16068816458432
N         2.61029434950640   -2.51277680909797    0.02160291649606
C         4.63128904022238   -1.10268354607610   -0.03531764059127
C         4.97731175729070    0.21279096209189    0.11645643729493
S         3.65074070270794    1.24304930324823    0.04935165802808
N         6.33482033051000    0.39515893292234    0.14398854237858
C         6.83787495410874    1.13876511659674    1.33699058965341
C         6.75326848440121    0.05223717485499    2.42878934612515
C         7.67405418429156   -0.88961289899697    1.65717136591387
C         6.95164811932810   -0.99790333471096    0.30383214688819
C         5.77810696557633   -2.01817519556852    0.16153367447743
C         8.88798274846441   -0.01268246946440    1.45460075507217
O        10.00541331350828   -0.50716980224443    1.43320250112907
C         8.35134750186305    1.38235582225479    1.23219080357222
H         0.64468671392815   -0.34356782466713    0.67000173679382
H         0.68890415572099   -0.11136131874521   -1.15194878358457
H         0.97865947725643    1.21825922242257   -0.09789853804404
H         1.64359856108676   -2.43344857512887   -0.27793600217450
H         3.01055320317607   -3.20589809636890   -0.60337604908992
H         6.25123133128561    2.01421436332669    1.62620245791643
H         5.73500530279864   -0.31301404172114    2.59682960706218
H         7.04431937809042    0.53070966357282    3.37066622663956
H         7.85241039430237   -1.84334917586411    2.14990475867404
H         7.72972911090130   -1.11802340233945   -0.46053242450841
H         5.61023286085165   -2.74414679985629    0.96392806057381
H         5.86782934573885   -2.65202985638604   -0.72736437942067
H         8.62609194473571    1.75848283539208    0.24509008402520
H         8.83676239032693    1.93224264063066    2.04279407121096
