30
 energy: -45.973063100483 gnorm: 0.132952201076 xtb: 6.4.1 (79825abcba525fcdf90b791dcacef51065a7a4e7)
C         1.12385297755222    0.08365395242293   -0.33324739529469
C         2.59514920034381   -0.04251854923718   -0.14052060912412
C         3.21473942707301   -1.25033453759593    0.13435164097664
N         2.67093146955114   -2.48197798096803    0.13390246698365
C         4.59393481759781   -0.97527869360972    0.15061162340642
C         4.94872081744665    0.34659593781429    0.15443621019434
S         3.65264610927566    1.32340241350671   -0.28347419951849
N         6.30446965516467    0.49145738140570    0.28787486625115
C         6.80248594616679    0.99525261405715    1.60219527336654
C         6.79996843401504   -0.25394815021006    2.50730126768748
C         7.75530235396774   -1.02928620551477    1.60369174298961
C         6.91234215267530   -0.91422290414771    0.32255829459882
C         5.72344489646214   -1.92517936422762    0.26877442930289
C         8.91394621267080   -0.07766104471038    1.41496350015658
O        10.10485711875859   -0.34445173827695    1.35030583247476
C         8.28087358979903    1.29006887633479    1.30492112091644
H         0.56602322930565   -0.14752990128290    0.57912553814803
H         0.75329472264945   -0.52557071272735   -1.16364272842862
H         0.86976302350558    1.11305862344315   -0.60837588348876
H         1.75168164298815   -2.42003053509070   -0.29231291215972
H         3.29839599834929   -3.09205954036404   -0.38118173068507
H         6.14541501598414    1.85154119035703    1.77317273279773
H         5.77005129881980   -0.62484872261015    2.49283245369029
H         7.11071065800012   -0.09197990330245    3.54556142798058
H         8.01530475761786   -2.07191407192268    1.77555185945290
H         7.50145561676909   -0.97317483703560   -0.60132592438851
H         5.68859389753201   -2.57439980000478    1.14988252133315
H         5.89979970455492   -2.55014172356111   -0.61342884712334
H         8.31890816147297    1.69870859469586    0.29354047076967
H         8.79697704809738    1.93177828298668    2.02389750528583
