30
 energy: -45.976795474811 gnorm: 0.114261882676 xtb: 6.4.1 (79825abcba525fcdf90b791dcacef51065a7a4e7)
C         1.15389565660090    0.21903027496922   -0.45493841349156
C         2.59283305744776   -0.01378362149544   -0.14992604535976
C         3.20101955489278   -1.25616430583146   -0.08017149251300
N         2.55034554005787   -2.42682950345928   -0.21742745219795
C         4.57572971801414   -1.17016970092482    0.20421721464926
C         4.98111165013569    0.13643304633065    0.16304685863760
S         3.73226510398536    1.26126413988195    0.13366404635341
N         6.32227100844899    0.41519806182314    0.18371653237211
C         6.77570759489529    1.09309490547265    1.43436400911411
C         6.70606785524793   -0.02920023082140    2.49045570815023
C         7.68300903463962   -0.92317474346379    1.73103640827933
C         6.97332379972030   -0.95925787546194    0.36715618942720
C         5.80864824760987   -1.98965063910323    0.22494517458833
C         8.86898787039600   -0.03134338782715    1.44510736540295
O         9.99161645260416   -0.45968015428714    1.22181528598430
C         8.27471773647653    1.33633998334103    1.20044308714739
H         0.64426318175900   -0.65854926180407   -0.04607013863313
H         0.97517746983336    0.30031612191223   -1.53172852521047
H         0.71794523085199    1.09996700975882    0.02862033798358
H         1.55629230354541   -2.45820507332646   -0.01397960429638
H         3.01349560057486   -3.32630944999576   -0.12995838012462
H         6.14410589673580    1.95786631072219    1.65220646143333
H         5.78575850869272   -0.62074339624762    2.53062131097708
H         7.24196177786171    0.26376939370377    3.40027168070886
H         8.00815894620426   -1.88329046301236    2.12684615654131
H         7.66566538925857   -1.10397221938193   -0.47177940785756
H         5.91194369321196   -2.73113421039465    1.02406056177987
H         5.96684998460067   -2.56516539606818   -0.69359527825476
H         8.61716265051722    1.67285028223262    0.22023078033904
H         8.62153093482095    2.11349156640127    1.88661857772669
