30
 energy: -45.982023781429 gnorm: 0.114207977475 xtb: 6.4.1 (79825abcba525fcdf90b791dcacef51065a7a4e7)
C         1.01636009235522    0.29704056571143   -0.21841245242176
C         2.46144118856214    0.05492965446495    0.04785550128079
C         3.29428947491222   -0.75228636734443   -0.70913346445435
N         2.89367227968026   -1.33005572226679   -1.85733262229348
C         4.65176538422302   -0.68857858364938   -0.34677933452212
C         4.77911022284207    0.14362770806044    0.73232040629227
S         3.34606829500447    0.75413750921142    1.36429721011883
N         6.08364661293376    0.37794778337616    1.07891027353005
C         6.70781806403712   -0.03713449607786    2.37018278910054
C         7.19354115485638   -1.47209067659840    2.07915084914374
C         8.01762417046202   -1.07619423760569    0.85666348016698
C         6.97410418865878   -0.30185538227393    0.03411271184874
C         5.97737043115395   -1.14229258947475   -0.82529957558332
C         8.91476203860627   -0.01890284785188    1.45744875908335
O        10.02039565318656    0.33180337357198    1.07247326448992
C         8.03531460965920    0.73441418433915    2.42835610674623
H         0.42160875135301    0.62136349396530    0.64073238736581
H         0.58747417654205   -0.69838399673187   -0.37076509470509
H         0.83838562414673    0.83884671473493   -1.15366779400523
H         1.98079736485076   -1.75752159903047   -1.97753913868937
H         3.63314982586395   -1.74893214944688   -2.41315496814676
H         6.01625806306020    0.08117571003170    3.20800919806336
H         6.32073361424600   -2.12245529877629    1.96193846351173
H         7.88383624475452   -1.86030482301250    2.83648899613871
H         8.47601674756848   -1.85328683239215    0.24821186891473
H         7.47095354229332    0.44713352549270   -0.59536992829099
H         6.09625897246197   -2.22278238738123   -0.69316121365268
H         6.10931926498280   -0.88158427910680   -1.88103736008956
H         7.91958222742124    1.76285627029122    2.08160437931337
H         8.44352292803015    0.66030213961448    3.43976806911789
