30
 energy: -45.970586260829 gnorm: 0.126535039464 xtb: 6.4.1 (79825abcba525fcdf90b791dcacef51065a7a4e7)
C         1.14494834307298    0.30352688883045   -0.27642517929833
C         2.58403134611651   -0.07868330107942   -0.24938495614669
C         3.20832145540974   -1.29865018547395   -0.04886329948882
N         2.58545146746660   -2.49209332821255   -0.02888042511332
C         4.59098815608912   -1.13726465293737    0.15185428535289
C         4.98535510074539    0.17296663892024    0.12009044665414
S         3.71548845962729    1.23262199002319   -0.18040131719461
N         6.31423627395225    0.47585317373871    0.25858298937587
C         6.72861328730144    1.04865864020214    1.57366989786546
C         6.80522837184275   -0.14520383445480    2.54760432421677
C         7.69779156959884   -0.95592728695757    1.61145231119421
C         6.92033004929100   -0.93077852855903    0.28478524934113
C         5.77536291314826   -1.98372894830409    0.42170866744722
C         8.82155582656097   -0.00832537090296    1.26092572914206
O         9.97962832597233   -0.35023468710508    1.07226524919143
C         8.22255477760843    1.37054853711700    1.41415723148720
H         0.61275339817445   -0.00190675207526    0.62940217928319
H         0.69727615172188   -0.36034183894614   -1.02267744090351
H         1.08727465702651    1.39317940646206   -0.37266707527412
H         1.90958176201136   -2.46266857871301   -0.78575003339122
H         3.15211503798688   -3.31298370860405   -0.21928621233989
H         6.06649055873120    1.84335139685945    1.92617882017060
H         5.93132497889819   -0.78781745286718    2.69540988504270
H         7.34184226352448    0.10641306289747    3.46929465740627
H         8.05632774212964   -1.93821809965781    1.91272724667413
H         7.69109336812787   -1.09639944442173   -0.47848775058548
H         5.80132920609082   -2.51456273376590    1.37909807569685
H         5.85324480852897   -2.67759246157849   -0.42235852263618
H         8.35207092872507    1.97573577835653    0.51510337524962
H         8.73543466853903    1.86786936932604    2.24162746657155
