30
 energy: -45.980821958278 gnorm: 0.116713451612 xtb: 6.4.1 (79825abcba525fcdf90b791dcacef51065a7a4e7)
C         1.07427593264543   -0.17246415629200    0.23374238589091
C         2.56216388122001   -0.20844825105274    0.18206751941285
C         3.36605463108588   -0.71513143374632   -0.82555249647413
N         2.92003433275541   -1.46971837705356   -1.84748073958753
C         4.70791424634381   -0.46110846093828   -0.48941984427609
C         4.89826345560538    0.32632228884894    0.61373937650792
S         3.43238330112448    0.82408381192921    1.26883852455014
N         6.19075247858075    0.70095016378448    0.87058893637236
C         6.63830309471484    0.24167977410974    2.21893501396547
C         6.80483947442177   -1.27434298613956    1.98727498223144
C         7.80674593062314   -1.03975366458607    0.85967865547906
C         7.04973187744012   -0.11068979701330   -0.10411303942924
C         6.03103515684124   -0.85224915547024   -1.02647363734094
C         8.87638769097142   -0.20407953578498    1.52389220702596
O        10.08119542685366   -0.34176741167432    1.37188219922571
C         8.09096659809810    0.67551910980492    2.46887651235336
H         0.71253335381260   -0.18983971149103    1.26615934052627
H         0.71945152636300   -1.09147412514529   -0.24327421447465
H         0.58935959204554    0.72517317803526   -0.16504920192802
H         1.96187089398605   -1.43849338665059   -2.18134466801444
H         3.31149727120556   -2.36141578799721   -2.13532704033173
H         5.97177227057554    0.60521153880341    3.00492925208958
H         5.84891869076406   -1.73545142370734    1.71875989684180
H         7.20723572400588   -1.80088266237934    2.85997872934422
H         8.17783463086410   -1.85236654139024    0.23825810091199
H         7.57080788937683    0.63737023308437   -0.71483231852585
H         6.15453275470361   -1.94014013610963   -1.04364314312348
H         6.26730049509483   -0.43997104102225   -2.01347264310707
H         8.25017913414361    1.74092618865101    2.29314093449886
H         8.40290429972712    0.50428617425580    3.50253745055042
