30
 energy: -45.983980682523 gnorm: 0.112912983443 xtb: 6.4.1 (79825abcba525fcdf90b791dcacef51065a7a4e7)
C         1.00923361528940    0.06857917183075   -0.07492848163614
C         2.49756904885708    0.03668689435361   -0.03472625364210
C         3.33999168189465   -0.77615245524739   -0.77491716229439
N         2.90529797092850   -1.55862113249659   -1.78062936395352
C         4.66764150321746   -0.63176947105530   -0.33378275817177
C         4.81820710379571    0.15819574773861    0.77370323856814
S         3.35304971620752    0.83464659583615    1.24429237898064
N         6.11074407604091    0.50113587885064    1.07133701690621
C         6.69596094087503   -0.00126188626731    2.34976797171357
C         7.13529364992884   -1.45406510845129    2.07395042376746
C         7.95414426551685   -1.05607061939257    0.84863159588519
C         6.96123103775908   -0.22170949598184    0.02213948101250
C         5.98259087503927   -1.04199377070449   -0.87663718850734
C         8.88690336752224   -0.01030288972393    1.41431233590287
O        10.07731237825742    0.11456980064533    1.16741180460531
C         8.07245205680734    0.66645931434760    2.49238347902132
H         0.56465574304919    0.88450456211595    0.50270518076660
H         0.61845524533886   -0.88417216188788    0.29599156742293
H         0.77311464043453    0.36212493072068   -1.10352465191166
H         1.91166434835191   -1.44231408178768   -1.95291452989381
H         3.36079070153929   -1.42537927162462   -2.67840214392657
H         6.01350175979590    0.20347601440634    3.17834354887871
H         6.28495108017331   -2.11188972905081    1.86733442526542
H         7.73911580271467   -1.89955661475241    2.87252085241286
H         8.44241650672973   -1.76175851719278    0.17944938849576
H         7.50683761117345    0.54320899748329   -0.54469843334789
H         6.15574711040167   -2.12090665994362   -0.80580548667908
H         5.90674697254956   -0.67158202096292   -1.90474439127103
H         7.93665429149925    1.74591724103246    2.40489965181040
H         8.57087846773352    0.44953173538060    3.44085294175927
