30
 energy: -45.975378180813 gnorm: 0.115477307499 xtb: 6.4.1 (79825abcba525fcdf90b791dcacef51065a7a4e7)
C         1.16657479226543    0.28728243710124   -0.38102729092880
C         2.61126633248826   -0.04842620203321   -0.24708038686207
C         3.20723139746426   -1.28182180678830   -0.04256335558024
N         2.54217199619976   -2.43648576279992   -0.23522894635848
C         4.59371946958058   -1.19921662907875    0.17863176116642
C         5.02447527473228    0.09889004939623    0.12755571642526
S         3.77696546898003    1.21512807669780   -0.02560436317416
N         6.37385881289947    0.29210367287072    0.26422385281906
C         6.73143438320429    1.08956884237205    1.47478446865776
C         6.72654744047345   -0.05871674302480    2.50490197489011
C         7.72136281598319   -0.89909763237775    1.70839428344509
C         6.99329696028648   -1.10498743012268    0.36949403328542
C         5.76664821672201   -2.06998752761850    0.41959436021742
C         8.83686235138135    0.00441690779257    1.23617966324554
O         9.98550740208555   -0.25446126213911    0.90872995153485
C         8.23295075179964    1.38586488434878    1.33849131438840
H         0.71628266643901   -0.43847998487251   -1.06480377412555
H         0.92381778167632    1.22593060017019   -0.88899696533838
H         0.58094071401532    0.28963373898127    0.54469327863803
H         1.55643893039776   -2.47233481412546    0.00469283656618
H         3.05895474433600   -3.27238230001842    0.02057479867889
H         6.10413731654700    1.98195763987967    1.54071055888009
H         5.76600235071385   -0.56087212885359    2.65884672441824
H         7.17657324877779    0.33564912565908    3.42290575222313
H         8.11553259010786   -1.74700882272481    2.26506907275422
H         7.78660697035636   -1.18573910801371   -0.38431659035785
H         5.62624665428186   -2.46267673352651    1.43208427102380
H         5.81303643410938   -2.95497410386170   -0.22430663540386
H         8.42681218023633    2.01403302395684    0.46720123503807
H         8.68101297563443    1.94770850563894    2.16229515725681
