30
 energy: -45.969952112841 gnorm: 0.121417330542 xtb: 6.4.1 (79825abcba525fcdf90b791dcacef51065a7a4e7)
C         0.98491725885986   -0.10276637189219   -0.08043956432096
C         2.45821470953781    0.10814531106593   -0.02860739891188
C         3.31129507766518   -0.69977988638149   -0.76194022165132
N         2.80841954527654   -1.23925442682281   -1.88833105031670
C         4.65300236909312   -0.61218854607726   -0.34932736723758
C         4.83870300649942    0.19555661732232    0.73984815253051
S         3.35369859156333    0.72908615687812    1.31936018155018
N         6.13108167975856    0.53825096841555    1.03845087740456
C         6.74619044787990    0.10840985914147    2.32924359327871
C         7.02987976580313   -1.37306557096288    2.00601507990861
C         7.91504714031001   -0.97742073814711    0.82691963816221
C         6.96767231874258   -0.14154654423053   -0.04996100733783
C         5.96575533847635   -0.91812612240088   -0.96182113660910
C         8.95167555736490   -0.12900798321002    1.52639209431360
O        10.14862698981629   -0.13922302834660    1.27975552007388
C         8.16261968119941    0.66472599862289    2.54175045711258
H         0.59854125673298    0.64877088670382   -0.77538539138325
H         0.43035635060223   -0.02543342036203    0.86004240669319
H         0.70803515421959   -1.09962265775970   -0.44036346448712
H         1.90979820821423   -1.69351175713319   -1.75930679547867
H         3.49369339899751   -1.62371984035365   -2.53161098801006
H         6.03037285271960    0.36070644065262    3.11547335437970
H         6.15913593588901   -2.00440872704316    1.80176794785618
H         7.68944102161878   -1.71815927646660    2.81017171083320
H         8.32207985806328   -1.80760734738138    0.25305155089546
H         7.45117541315765    0.62807477350487   -0.66477792826813
H         6.34081146425557   -1.94661318526733   -0.93731589031415
H         6.00561907821183   -0.58572886439350   -2.00483817487480
H         8.16388251733645    1.74068140626432    2.35833225269334
H         8.56899627603752    0.45076043158463    3.53379762621068
