30
 energy: -45.972154395878 gnorm: 0.128042568602 xtb: 6.4.1 (79825abcba525fcdf90b791dcacef51065a7a4e7)
C         1.14558383303469    0.18228357060683   -0.24892961629151
C         2.61265066408733   -0.07343814528818   -0.25876845552582
C         3.22479948559111   -1.30962438979282   -0.13473874046700
N         2.54942716671482   -2.45909064939515    0.05307017755722
C         4.61899916152270   -1.18215970119998   -0.00035227535579
C         4.96711281130764    0.13764502515433    0.10050605470033
S         3.71835914557854    1.24894239269555   -0.07657676225988
N         6.31835715983662    0.32751106710771    0.22271503615147
C         6.77559935073990    1.08894077179395    1.42289098340773
C         6.83782423873088   -0.01423921438793    2.49938887314157
C         7.71417992686386   -0.96232566555491    1.68486143699270
C         6.97107166906104   -1.05325147358534    0.34148995495170
C         5.78870630600595   -2.06487561627287    0.21098704708793
C         8.87588009587164   -0.01783515703127    1.47978886683766
O        10.02819866975635   -0.32199851708169    1.20909860893116
C         8.28402831088728    1.36365999958130    1.32244215729251
H         0.67948288942369   -0.57127242581443    0.39290182565849
H         0.81075759592614    0.10777903993916   -1.28833567063250
H         0.87550133058572    1.14886852694767    0.19004679131253
H         1.57708683976523   -2.24841839208675    0.25478465157969
H         2.84439617126965   -3.15299116026574   -0.62716382886308
H         6.19840484186512    2.00896608145803    1.54374433431745
H         5.81102877825855   -0.38619998833640    2.57582279782763
H         7.25383061179806    0.38278579829915    3.43217418166870
H         7.99167127217395   -1.87154798338948    2.21450596788628
H         7.59878488178199   -1.08306234467547   -0.55805407218390
H         5.72972420914363   -2.66478114786763    1.12514656765888
H         5.87478565596266   -2.65446955582909   -0.70821416061369
H         8.43482580030742    1.92996298817049    0.40163549879510
H         8.50735461643235    2.03633169127545    2.15473953911924
