30
 energy: -45.976426139350 gnorm: 0.118625178226 xtb: 6.4.1 (79825abcba525fcdf90b791dcacef51065a7a4e7)
C         1.17184482656653    0.16319491805508   -0.34702234434060
C         2.63137340522736   -0.06649736014516   -0.16049222625771
C         3.22188106158141   -1.31609511446764   -0.25033899831694
N         2.53799901042422   -2.46623752488188   -0.39916997579192
C         4.59233030228113   -1.18861076332760    0.03899933909128
C         4.99481439808341    0.10377710305452    0.24143557442376
S         3.73751855102522    1.21872905622493    0.19882866145096
N         6.34010585029623    0.36134250953121    0.26782846545666
C         6.87553175405194    1.15832842664623    1.41124463773410
C         6.73239839425757    0.10430614803573    2.52850719572274
C         7.65586003166988   -0.85456622851966    1.78144324731764
C         6.88451020528598   -1.05669643051437    0.46641959390900
C         5.74718618935892   -2.09755730145559    0.21841738691253
C         8.82983329967411    0.01401796694660    1.39283978744519
O         9.92852892019328   -0.45273512122440    1.13085474628805
C         8.37101075502799    1.44085156148078    1.19995854549847
H         0.51951475252656   -0.42919556298443    0.30150164813376
H         0.93922172326082   -0.07279759659297   -1.39019948370968
H         0.97589633831098    1.22115971853880   -0.14148393477761
H         1.57425007875610   -2.37781937723438   -0.09275928222081
H         3.09682912899149   -3.31141354752653   -0.33127758786707
H         6.24036793063890    2.04099874222430    1.51925230951233
H         5.72863406774591   -0.31271658551652    2.65910238643700
H         7.20088627719660    0.45587399465369    3.45462692613449
H         7.94112379390538   -1.76589636158274    2.30327846420064
H         7.60555880168562   -1.25482443452525   -0.33665342230734
H         5.61173680668233   -2.90595406777867    0.94450372696965
H         6.02199059574412   -2.52960937132504   -0.74997051883350
H         8.52588810088958    1.85914162001223    0.20378069843068
H         8.73854972709318    2.10683635504766    1.98510830333440
