30
 energy: -45.978074730768 gnorm: 0.117473597506 xtb: 6.4.1 (79825abcba525fcdf90b791dcacef51065a7a4e7)
C         1.20942231020884    0.24411147871219   -0.05405481235365
C         2.65948150712755   -0.08352354460011   -0.14214175786499
C         3.18229388782590   -1.35049007716636    0.05718033138002
N         2.45791084688229   -2.45181694077538    0.33108036888060
C         4.58061777697938   -1.22891849522424    0.14668281864813
C         5.06776476484494    0.01054876331285   -0.16898946411579
S         3.85189272709707    1.15543272668653   -0.36035806984904
N         6.41234437116441    0.23064685490126   -0.02578290254470
C         6.81195377955985    1.17700064748795    1.05772750840868
C         6.63806185087507    0.29058616035056    2.30823008734602
C         7.57787186805587   -0.81683342820016    1.83844166872640
C         6.97090699077888   -1.11175812651237    0.45650916765901
C         5.74950358123819   -2.08467084419304    0.45239616403560
C         8.79240109959955    0.00433030543410    1.47200851765135
O         9.94877188989777   -0.38856016598255    1.42650746245655
C         8.33551045864974    1.37340614594780    1.02428349936201
H         1.09735820179494    1.25039710614123   -0.46863319965946
H         0.92545701175891    0.42059704411552    0.98817408547005
H         0.58159980156836   -0.36709940517975   -0.71146756170829
H         1.44958330362569   -2.40171722282161    0.22485949298911
H         2.87324887833474   -3.37843517595715    0.32128453342369
H         6.18793042192499    2.07358551510925    1.02713256749553
H         5.60567427278787   -0.05116714864138    2.43427155205797
H         6.87837672306064    0.72583284309881    3.28474823363101
H         7.67942327870820   -1.66799270070527    2.50883351077850
H         7.79174733085984   -1.57185957774958   -0.10795504466567
H         5.54950797956915   -2.60655317000457    1.39404037957160
H         6.02889278200202   -2.78824781882647   -0.33936308351087
H         8.85421111654239    1.50371545397603    0.07281464540791
H         8.64581978010127    2.18253087152161    1.69069634946685
