30
 energy: -45.975904945680 gnorm: 0.138306271054 xtb: 6.4.1 (79825abcba525fcdf90b791dcacef51065a7a4e7)
C         1.07538210460444    0.29187478420121   -0.18743182086673
C         2.53118473381170   -0.01982182746218   -0.22292315604091
C         3.18107040898094   -1.23775393708559   -0.11086836664226
N         2.70360111712472   -2.48133844397313   -0.30630000630874
C         4.57119482946116   -1.13637749233519    0.07721927074658
C         4.98274520801216    0.16893641260005    0.08192630931593
S         3.70888867584029    1.24756558076751   -0.11700761605705
N         6.33933569969359    0.32691136519584    0.18940543955232
C         6.74002587243749    1.00716562702226    1.45667396349795
C         6.83765041534656   -0.06980493244707    2.55682377637373
C         7.71956492795016   -0.97145053865673    1.69683298135020
C         7.00857406668955   -1.04332815383076    0.33505106534537
C         5.76883529553486   -1.98913232308018    0.25195701231017
C         8.83113912189378    0.01599498699003    1.42661356799090
O         9.99486060382469   -0.30119915957697    1.22972055423394
C         8.22088472834245    1.39454262146343    1.32282820827622
H         0.59481541662095   -0.44702883070990    0.46073596350859
H         0.62677972134440    0.16657480258502   -1.17792681868113
H         0.89534702496141    1.31293054869874    0.16607046675237
H         1.69154751689558   -2.42425622344938   -0.25146924932469
H         3.11332598330670   -3.30276818492819    0.12798296934428
H         6.10362245681556    1.88893423333446    1.56475005680484
H         5.92445203290551   -0.60363091438907    2.83896633435319
H         7.28798550855695    0.22036829738937    3.51274030198248
H         8.08225203291753   -1.90245494985803    2.12799289380980
H         7.71730902924746   -1.25299755860173   -0.47601339165712
H         5.80357516907108   -2.70812755088040    1.07711896271465
H         5.82884336536243   -2.62601070846345   -0.63728229258198
H         8.54191436544287    1.83224045283394    0.37589397178665
H         8.61729002750335    1.88698071838861    2.21470731531372
