30
 energy: -45.978855068379 gnorm: 0.122059975325 xtb: 6.4.1 (79825abcba525fcdf90b791dcacef51065a7a4e7)
C         1.13610218124944    0.24627025077264   -0.30026283123103
C         2.58041661902494   -0.07019100240929   -0.12254456449979
C         3.23145007681656   -1.29225886622178   -0.09136994106188
N         2.69278638216095   -2.50264743040650   -0.33110693216941
C         4.61942266792976   -1.12253269297273    0.05970999791448
C         4.96352530507833    0.19530581726575    0.19437736088903
S         3.66152601687763    1.25752640515020    0.14735258794330
N         6.32358727224004    0.34762861352992    0.25662541074162
C         6.81091786234503    1.13873363184249    1.42535537723568
C         6.83107345879014    0.08045428564002    2.54756940418888
C         7.67563898121939   -0.91457364912898    1.75576724487798
C         6.91095193721010   -1.05662358925087    0.42904198483693
C         5.73230154910681   -2.07146086042590    0.29015018663964
C         8.81072932501572   -0.08179274570617    1.20648565830387
O         9.96891660728621   -0.46153802859635    1.29605357141138
C         8.29935855121780    1.33613762777856    1.09902034866496
H         0.55925056802228   -0.03788310745842    0.58491707065940
H         0.69861071212561   -0.26438831344252   -1.16389097379627
H         0.99430235026649    1.30898706424518   -0.52488952844181
H         1.73927811981184   -2.64309094281371   -0.64987786442844
H         3.37314944310574   -3.12873685972374   -0.75103682366933
H         6.12830999764477    1.96551743352997    1.63673341185754
H         5.82725270142263   -0.27239322832426    2.80515124693695
H         7.34047723158298    0.32015652974399    3.48769132849776
H         7.94853969862970   -1.83440302303095    2.26923500276377
H         7.56012208347054   -1.13083445310785   -0.45252645906699
H         5.60644701558847   -2.65634065910926    1.20728130562849
H         6.03042858130739   -2.72871130950994   -0.53392730511750
H         8.42945757747736    1.86239295600994    0.15168015618014
H         8.76862059408607    1.91423161724881    1.89944602045166
