30
 energy: -45.982195531306 gnorm: 0.118067718074 xtb: 6.4.1 (79825abcba525fcdf90b791dcacef51065a7a4e7)
C         1.11609522311591    0.25389349941495   -0.31384383442230
C         2.53580177569381   -0.06422963708064    0.00397162233486
C         3.20207112278788   -1.27773931054752   -0.03780997454678
N         2.62869540577204   -2.46056521141199   -0.32907625508576
C         4.59450951157521   -1.10849242746694    0.06500473831583
C         4.98959150948308    0.19850470047377    0.15939215017885
S         3.67812107035002    1.23943533399935    0.01027892693435
N         6.33501633824004    0.45137324911291    0.21169068903096
C         6.77161016159721    1.08027646960100    1.49353879234621
C         6.78840010179172   -0.10030795902959    2.48634504272134
C         7.67199901402476   -0.97288693222402    1.59854941856744
C         6.98156811659889   -0.93731235024456    0.22480854024403
C         5.80015815838920   -1.95798427346484    0.19478031063364
C         8.89331498138390   -0.08952129618983    1.49030503048372
O        10.08471968547235   -0.33965986769820    1.38254511249749
C         8.28016346314172    1.27492737362621    1.27606112875196
H         0.52949756704882   -0.14549790941062    0.51888304729905
H         0.82929598884787   -0.25954838311941   -1.23696254507938
H         0.87145525504139    1.31979302681170   -0.25106762870478
H         1.64177852567498   -2.40901017127778   -0.09701068432081
H         3.07053058576049   -3.29700468533467    0.04021179661167
H         6.15388141992988    1.97724617401938    1.58332840619729
H         5.82089753241852   -0.58181919282868    2.66124957903047
H         7.22306563696908    0.08847930671882    3.47437532748336
H         7.86676474932570   -1.98874560424195    1.93664331650349
H         7.63826091229916   -1.09315910159662   -0.64038416614657
H         5.79027373764156   -2.69322713889531    1.00618246974318
H         5.90002287765875   -2.46760797073985   -0.76972593970156
H         8.46009331530733    1.61970741756516    0.25622004474310
H         8.72636254347922    2.01704479863725    1.94333085723244
