30
 energy: -45.983157133435 gnorm: 0.101694118984 xtb: 6.4.1 (79825abcba525fcdf90b791dcacef51065a7a4e7)
C         1.02900258778560    0.21960731169754   -0.11658249446666
C         2.48708176347581   -0.05415244638876    0.01317282735565
C         3.33806667623133   -0.89556739356325   -0.68404441585204
N         2.97150266980224   -1.78369757658937   -1.62719260570766
C         4.66643603638942   -0.79526985831350   -0.23296203490263
C         4.82467495541395    0.16116081494263    0.73318551515725
S         3.37844747733369    0.91504789549408    1.14037884138139
N         6.10353065251888    0.56038997921754    1.01952412146577
C         6.71824863772000    0.19654649953803    2.33063346668396
C         7.04691931792570   -1.29822970080249    2.13738377902729
C         7.88866119723966   -1.08068080902717    0.88260680337683
C         6.92045199555431   -0.25873398762293    0.01537053867757
C         5.96629110991420   -1.13807201728999   -0.85338949349848
C         8.85492958344122   -0.04614836997230    1.41150416635431
O        10.07101014770133   -0.10119446926872    1.30313138855998
C         8.08390594325432    0.90017808292652    2.30232636778552
H         0.81076119257064    1.28651867962646   -0.01115380381584
H         0.46851849235130   -0.35791527290968    0.62527313216072
H         0.64311503792005   -0.23194802515667   -1.03697368919793
H         2.01565212766881   -1.76613528982415   -1.96859940826580
H         3.72471130156122   -2.05870918131939   -2.25030444529423
H         6.03741394154199    0.42192718953009    3.15517775739013
H         6.19565234248353   -1.95754698070861    1.93951729002448
H         7.67275966592614   -1.68076151067113    2.95149180331495
H         8.26890608367565   -1.96084624880984    0.36789072588814
H         7.43141928283673    0.53209933222354   -0.54817816871704
H         6.11912054857519   -2.21970038008904   -0.92939268064810
H         6.01625504547735   -0.74446135981210   -1.87443593857617
H         7.94463130883283    1.88411823447739    1.85089728053542
H         8.64183568043997    1.00113845079425    3.23699325750939
