30
 energy: -45.975031986245 gnorm: 0.106493466145 xtb: 6.4.1 (79825abcba525fcdf90b791dcacef51065a7a4e7)
C         1.03628929356786    0.07951670207086   -0.01968446309865
C         2.51705233553085   -0.00491834715946    0.11443209462709
C         3.33372547015605   -0.69961416258115   -0.76232842371122
N         2.88666254503105   -1.50419697505212   -1.74490367672223
C         4.69778732154264   -0.50694213704171   -0.47893325847275
C         4.92430548842714    0.30189371629623    0.60167507180589
S         3.48568898516942    0.91077056833483    1.22246295341144
N         6.20689538489693    0.57204213579050    1.00020814716517
C         6.64913238969342    0.05685020519811    2.32997192449594
C         6.93972878455197   -1.42747579326886    2.02656491591211
C         7.91821801952264   -1.12081352821782    0.89570716909759
C         6.97652794377454   -0.29744309214129    0.00105343693450
C         5.97478868847214   -1.17912701023059   -0.80984377773523
C         8.85617990176215   -0.05589506856837    1.41516897422084
O         9.90995017435005    0.38681751169498    0.98250229289024
C         8.07961299608209    0.57346646314989    2.54849298356266
H         0.63652166744723   -0.79627986221727   -0.53950231520072
H         0.60945065400955    0.87057962298764   -0.64422650408420
H         0.50039924860968    0.17776491254974    0.93063155053762
H         1.95206327087776   -1.89174328162734   -1.66214287242595
H         3.65212032675883   -1.96824506440208   -2.22444172418274
H         5.95695501024498    0.29787656938666    3.14052876747521
H         6.04724720812831   -1.94398211723030    1.65886430456159
H         7.39818026608505   -1.80480156416891    2.94755682880509
H         8.38144723785174   -1.95810902411789    0.37747463388278
H         7.49673246039254    0.44114254760532   -0.62181939722442
H         6.03064439719705   -2.24178894445090   -0.55161327797713
H         6.10762963672447   -1.28253360044697   -1.89225864922129
H         8.17905361618020    1.65487328752460    2.43897261344205
H         8.52573911786561    0.22974771356817    3.48546133300424
