30
 energy: -45.974340326416 gnorm: 0.118971769452 xtb: 6.4.1 (79825abcba525fcdf90b791dcacef51065a7a4e7)
C         1.12046758507998    0.21553018879641   -0.07458543777968
C         2.58268337962561   -0.05946809930995   -0.13843389810662
C         3.21638865466538   -1.28965741170885   -0.19603755826299
N         2.66318985179668   -2.51611614129362   -0.24546387106113
C         4.60793440069761   -1.12068102904008   -0.08137511133523
C         5.02014406949689    0.17675886129466    0.05995143029085
S         3.71615045871895    1.23756177875325    0.05506391942035
N         6.36158342262958    0.43488001349642    0.16367967310268
C         6.77966497673607    1.14524933102551    1.40860988662721
C         6.65031191496847    0.01995116134129    2.45584317506651
C         7.62415121953917   -0.90846779153974    1.73473470233885
C         6.94235409768665   -0.96931365035907    0.35757282150772
C         5.78494295806563   -1.99306353242141    0.13232185269463
C         8.82939996709075   -0.05229506742001    1.42167223545846
O         9.99769677515221   -0.41075606887377    1.43633346548634
C         8.27921220694135    1.32348754578663    1.12487089447543
H         0.61590632956498   -0.02371904817516    0.86627699783078
H         0.72880007141984   -0.46982997459757   -0.83280870463049
H         0.93298243905630    1.24650144028773   -0.39377028972859
H         1.66165240114539   -2.59019458976789   -0.09730041168043
H         3.17927793686415   -3.34099579874410    0.04513831875861
H         6.20975470402157    2.07755318745324    1.39386459098225
H         5.74095945843239   -0.55789241495465    2.64995860034263
H         7.07534183039121    0.36834217319047    3.40386842575297
H         7.86318554793124   -1.84307144480992    2.23831053521139
H         7.73403169945901   -1.29208954006440   -0.33028934270587
H         5.73045247365141   -2.73556922747190    0.93529714621004
H         6.10444532876203   -2.56042954518117   -0.74857293923790
H         8.52311164308883    1.75326178369300    0.15166431972729
H         8.81507544669094    2.03923693315121    1.75386547739305
