30
 energy: -45.973726182263 gnorm: 0.116394694830 xtb: 6.4.1 (79825abcba525fcdf90b791dcacef51065a7a4e7)
C         1.24938576759566    0.36126336550539   -0.52006254454136
C         2.60306863966617   -0.12720015599530   -0.13702005845237
C         3.14802862970911   -1.34457284554516    0.23619342815121
N         2.46413739937785   -2.45094539681333    0.58390765994789
C         4.54350485918570   -1.23948512973538    0.37655851088345
C         5.00364345080848   -0.01114890372734   -0.01421329608610
S         3.80443698115899    1.08092315818251   -0.45581076595742
N         6.34811843328832    0.21727968803758    0.11637316269053
C         6.81311362778045    1.23108582338952    1.10896799526737
C         6.87851293058895    0.43171260585455    2.42671270189702
C         7.66067235096116   -0.76557542998514    1.89281181701945
C         6.87291088386020   -1.12971211141333    0.62318168452704
C         5.66712431120308   -2.10626842036254    0.79873447642231
C         8.80711250427232   -0.04976048393186    1.21683230421378
O         9.95717595364692   -0.46325621784593    1.21824704989412
C         8.30762873230581    1.30098269041515    0.75902860390562
H         1.08341509609400    0.14180636816794   -1.57899440772959
H         1.13001636521408    1.39128521700184   -0.16959085053908
H         0.41108862076404   -0.23406845893211   -0.14221438531953
H         1.49698637996245   -2.43925866306849    0.27568767387484
H         2.89472902072017   -3.36999881523885    0.54992833974444
H         6.19354085931484    2.12908962372079    1.17161269738010
H         5.89609651804645    0.16887237428064    2.83202601647602
H         7.44402680037319    1.07223956130882    3.11278695234609
H         7.87327325541047   -1.51945280064880    2.64824531110558
H         7.54928930371930   -1.61029063672530   -0.09490503434168
H         5.62179428307132   -2.48399555636018    1.82553560536236
H         5.64593723716227   -2.91656274628075    0.06189274142246
H         8.69293549291052    1.47705713027572   -0.24688409138996
H         8.82890244088907    2.07373775026306    1.33017141678371
