30
 energy: -45.979737167569 gnorm: 0.101897409948 xtb: 6.4.1 (79825abcba525fcdf90b791dcacef51065a7a4e7)
C         1.18346419765671    0.23522596486304   -0.03263814771583
C         2.64420038444994   -0.04795229979557   -0.09457005518880
C         3.26377173225128   -1.28548470121013   -0.04061472115577
N         2.62828433026209   -2.47222269416562   -0.06255951859393
C         4.65970943183981   -1.13555927631537    0.04293376986388
C         5.03601178222655    0.17726551451504   -0.04722094260236
S         3.76689446796167    1.26779722050985   -0.20786927581423
N         6.37091640732343    0.42475009346541    0.13615470968494
C         6.71202794795334    1.09305413026108    1.42699963390320
C         6.60122191106960   -0.03596799392948    2.47234972389396
C         7.57633239200519   -0.93152208090297    1.71243880870069
C         7.00524697547079   -0.96167349980664    0.28482656732645
C         5.84968589043696   -2.00632752049240    0.17629587205180
C         8.81556427051377   -0.09499827844165    1.49290142612537
O         9.98259602534209   -0.41428998433853    1.32051708254239
C         8.23242990093074    1.28856430564666    1.32177489966571
H         0.63548565145867   -0.59410855613132    0.42449218054039
H         0.70687838304510    0.24176741484567   -1.01795418513164
H         1.03587554140930    1.14617807686500    0.55754420174353
H         1.61913625951765   -2.39951338011891   -0.14532917011962
H         3.22600264338344   -3.21703704080109   -0.40782374921410
H         6.15116796870791    2.01749596631840    1.58526839457878
H         5.55197072440285   -0.34585623692739    2.43301640330793
H         6.81367628721172    0.17471067847883    3.52651111467241
H         7.83598801159026   -1.88809628456100    2.16161001033639
H         7.73871136902888   -1.15594401157895   -0.50787829947147
H         5.85450421177420   -2.57501363124648    1.11204483525918
H         6.01093307930511   -2.64630887733450   -0.69799515410393
H         8.41331663232703    1.70928279311537    0.33101770874354
H         8.63808875266147    1.83781780399786    2.17549749648767
