30
 energy: -45.970461294756 gnorm: 0.132413817814 xtb: 6.4.1 (79825abcba525fcdf90b791dcacef51065a7a4e7)
C         1.09967877885069    0.01303482801155   -0.10741056560994
C         2.58078202662158   -0.08994143615029    0.00879937591479
C         3.27651489156409   -1.16438391444955   -0.52015753888165
N         2.67980286061796   -2.33073425318663   -0.83037444078922
C         4.62133159154653   -1.00559497814862   -0.14021782930166
C         4.89567532796359    0.25809909516054    0.30817161986714
S         3.56218286879942    1.27365468135207    0.43533605142432
N         6.22611210269559    0.56201606116675    0.42824704845306
C         6.83013438083148    1.00139826160842    1.72106118095794
C         6.74246186100857   -0.32346610858210    2.50641058211164
C         7.65432881344204   -1.02890332097734    1.50582116687705
C         6.99662451472419   -0.73192439874633    0.14775159430695
C         5.89846188146642   -1.72514835420546   -0.34817922851488
C         8.88497359889929   -0.15216320832066    1.48335831197875
O        10.04460359284454   -0.52902676812071    1.40054036486386
C         8.33658294627718    1.25415809802079    1.55479701777287
H         0.61566191004986   -0.72302046473018    0.54143043814960
H         0.69847991141789    0.12249541348691   -1.11987408315879
H         0.81268037819605    0.89717438141993    0.47212418983104
H         1.86066958071839   -2.58303142080109   -0.28642214514315
H         3.29070936543091   -3.11288808532965   -1.04543632214185
H         6.24540521992532    1.86009123621591    2.06009482983869
H         5.72808207520478   -0.73347228664699    2.46853614784677
H         7.10430059496066   -0.25817875160482    3.53868423618911
H         7.79542308483341   -2.09291337253970    1.68522305863414
H         7.76065452894690   -0.76278000308860   -0.63926691427242
H         5.95132851554021   -2.69612814515674    0.15526551462477
H         6.04464331019702   -1.81310131711214   -1.43024062045280
H         8.69364647862059    1.78145647249921    0.66835134514807
H         8.63540466865985    1.82388981077815    2.43864776272699
