30
 energy: -45.979062972719 gnorm: 0.124588867115 xtb: 6.4.1 (79825abcba525fcdf90b791dcacef51065a7a4e7)
C         1.18545865788354    0.20771118692007   -0.54037519217873
C         2.61740471918259   -0.04510735080597   -0.21883363282272
C         3.18349895555876   -1.28908398681424    0.00550037040257
N         2.58351701993813   -2.49434440389699   -0.00097272650238
C         4.57450409715996   -1.12617631073483    0.13459665728374
C         4.95758059761472    0.18773595430151    0.12331644580018
S         3.70378761255644    1.29449298138605   -0.04644253011717
N         6.29677954548701    0.33684170713439    0.37062048331127
C         6.75657889202302    1.03729126177418    1.60642912037526
C         6.88670271216702   -0.14651145631209    2.58694157073077
C         7.77753377950522   -0.97472773500167    1.66455337737363
C         6.96294094525829   -1.04257903102132    0.36187955188831
C         5.72726549941203   -1.99054972407303    0.47528204172656
C         8.83248782589681    0.00517937538450    1.20573053489914
O         9.96907751504910   -0.26170859408599    0.84439777427960
C         8.23227416482234    1.38393165713879    1.35526686643275
H         0.50875869834611   -0.51193331514767   -0.07002071729638
H         1.08784789365357    0.19356592094256   -1.63046535949665
H         0.86944417403704    1.21383260697913   -0.24408832989930
H         1.59960623977979   -2.44127761641102   -0.24514639791656
H         3.04729513738548   -3.25897579281541   -0.48208777320600
H         6.02250014997950    1.81322757816921    1.83720360428520
H         5.85071090803560   -0.47996725261909    2.70540718057820
H         7.27397732482594   -0.03607459882309    3.60605916908178
H         8.20298872809852   -1.87778501954423    2.09778039238483
H         7.60587304396116   -1.23665221151827   -0.50591419061614
H         5.74643290420452   -2.41483781908769    1.48457162576363
H         5.94419994861256   -2.75960346878512   -0.27402255586342
H         8.37256596599967    2.04537292668973    0.49844860871370
H         8.73184769103648    1.88023731273030    2.19144135308597
