30
 energy: -45.975918786112 gnorm: 0.120934730475 xtb: 6.4.1 (79825abcba525fcdf90b791dcacef51065a7a4e7)
C         1.23287609882000    0.30395082769667   -0.52188501268202
C         2.63595906901944   -0.08395774705184   -0.20778181946457
C         3.17049226062188   -1.32802024900054    0.08350676713240
N         2.47286143248857   -2.47871610545423    0.04011139842274
C         4.55129341006964   -1.20261274627611    0.31964484019288
C         4.94837980099820    0.10602277707515    0.26454745800100
S         3.79915024751066    1.19823291866331   -0.29408880777761
N         6.30348555052108    0.30471675930274    0.29702366208454
C         6.82495135473325    1.12333664205066    1.43157330231705
C         6.85927884300439    0.11207988470407    2.59600755920041
C         7.72063776506705   -0.88483915662291    1.82494633965868
C         6.92450062578458   -1.07723357973888    0.52330337106334
C         5.73003425210625   -2.08244300600383    0.48856938117968
C         8.80785257948978   -0.01729181547932    1.23419263403935
O         9.92722756726020   -0.38596095058237    0.91060435120988
C         8.28926905838817    1.39010039761163    1.05009023260248
H         0.52460216499102   -0.50433596722441   -0.31678780565286
H         0.99078974231117    0.59702502682718   -1.54829927498236
H         0.86352357884881    1.02750401052482    0.21294889819688
H         1.46243002816287   -2.53420758768348    0.12052513265566
H         2.92636448195193   -3.33657549560257    0.33950284896886
H         6.32660513637143    2.07155547651270    1.64776237021469
H         5.81343737980075   -0.09905717612625    2.84124756738780
H         7.25290634818433    0.50508066521521    3.54014016429174
H         8.02669105862325   -1.83438509393672    2.25957711502191
H         7.58248637266873   -1.25791547017463   -0.33605735886080
H         5.61145528972023   -2.58368845803374    1.45487432990748
H         5.94999448495909   -2.88035992690229   -0.22900129989846
H         8.45456162648316    1.83039216538809    0.06513064297346
H         8.84126047462758    1.99815048192366    1.77165890782281
