30
 energy: -45.977730690683 gnorm: 0.111288689907 xtb: 6.4.1 (79825abcba525fcdf90b791dcacef51065a7a4e7)
C         1.10756566611841    0.20412283771293   -0.47126782886733
C         2.54795040631896   -0.05968207029140   -0.20020606078134
C         3.22023041052308   -1.27000306991614   -0.23800773265259
N         2.73458490807953   -2.50855752056954   -0.44489948122238
C         4.58067704884087   -1.13566651006128    0.09250502945761
C         4.90186500420551    0.18301574067763    0.26901481203921
S         3.65651823173451    1.26480914519037   -0.05434338047790
N         6.22961634676906    0.42454909949295    0.50477665511319
C         6.80685782143654    1.07533598062368    1.71825790010239
C         6.99176975826210   -0.12878542592060    2.66463254442776
C         7.76725251160903   -0.99015500655638    1.67115827659638
C         6.88201064279932   -0.95848695245768    0.41399148152287
C         5.74933050890841   -2.02506194765911    0.28036565964576
C         8.87577919067821   -0.02278378407641    1.32615696000841
O         9.97685186224960   -0.34769386614451    0.90699221247199
C         8.26521623492055    1.35952878101512    1.32666656656773
H         0.62854996921186    0.54142528632277    0.45275348874981
H         0.57364636298730   -0.69421215521629   -0.79676582317470
H         0.80153275506574    1.01655366843322   -1.13927335374344
H         1.72593356181339   -2.39462950024123   -0.45755438743736
H         2.99384083948359   -3.06551178853599    0.36368649435557
H         6.26188595674408    1.91323524538841    2.16000004790698
H         6.04168537081850   -0.49342438998978    3.06822140976977
H         7.62152681565433    0.12253173880740    3.52546024809586
H         8.08781654984293   -2.00080878629537    1.91616369363232
H         7.48216198474186   -1.01980514654292   -0.50260576065859
H         5.59553318928941   -2.62188790218592    1.18546145507354
H         5.91420081415807   -2.74969462566837   -0.52442428925577
H         8.48608346971216    1.73277838220320    0.32505473065385
H         8.69683939858395    2.09424654503698    2.01148189717730
