30
 energy: -45.972963610573 gnorm: 0.122079863204 xtb: 6.4.1 (79825abcba525fcdf90b791dcacef51065a7a4e7)
C         1.11951544973072    0.04463806358647   -0.52622471503716
C         2.59646955129376   -0.07363911421660   -0.37658246305163
C         3.10379254740150   -1.23969804706029    0.17223102022353
N         2.43904657314391   -2.40038799097536    0.32580360176366
C         4.48829343540336   -1.16096217108272    0.40687548077103
C         4.97118708026739    0.09221986320375    0.14307860435121
S         3.82236137255507    1.14706873475939   -0.48399348837302
N         6.33134695324209    0.25256825269120    0.17623175552385
C         6.89736162176349    1.24180126744472    1.14075932563998
C         6.90317060275352    0.42593790152004    2.44998007514575
C         7.69629219899581   -0.74066460376903    1.86661149408109
C         6.85689368284783   -1.11202643341700    0.63266461558362
C         5.58617795167862   -1.91787457707466    1.05014834624606
C         8.93137045099609   -0.13265203478738    1.24326021773413
O        10.04635431093318   -0.57338623235058    1.00621373824934
C         8.40673707426986    1.22983233755816    0.85342491545514
H         0.73787447612764    0.28459996918585   -1.52312633099063
H         0.81180796639870    0.94753521896227    0.01054092699828
H         0.53343566979880   -0.73519128597084   -0.02791953541358
H         1.52659839947327   -2.59076448654616   -0.07633122790673
H         2.98366757005908   -3.21170470377338    0.60216595792305
H         6.35999405196681    2.18366479718438    1.00535322018510
H         5.90134373912890    0.10843724872788    2.75664301369791
H         7.49211724017587    0.86030430032231    3.26560639431386
H         7.88049589443340   -1.61278492779892    2.49085916621822
H         7.43331578611183   -1.64977137353800   -0.13065707118373
H         5.52028545696820   -1.92862968744326    2.14312398537322
H         5.81560424277080   -2.94589548119936    0.74931915936304
H         8.44632848049566    1.47833347510034   -0.20865021021844
H         8.95769357686642    1.98493249103677    1.42030362683058
