30
 energy: -45.978650986920 gnorm: 0.107775706049 xtb: 6.4.1 (79825abcba525fcdf90b791dcacef51065a7a4e7)
C         1.18746448480456    0.27253422706612   -0.32919974348476
C         2.60149550251929   -0.12065886189840   -0.07682868033502
C         3.22436744597010   -1.35769160717321   -0.08366840628341
N         2.46455351430931   -2.46904421191011   -0.09951278679480
C         4.62089631304282   -1.20303466619915   -0.02131147908747
C         4.98745226015277    0.10968571158001    0.10375730778994
S         3.70655314321592    1.19782085179443    0.13514857118671
N         6.33388566334419    0.35776381917266    0.15295024042783
C         6.76378422259671    1.11170034980733    1.36787201734998
C         6.85503335436336   -0.01547154268849    2.41710167057425
C         7.70335148367218   -0.95861367263532    1.56788942049956
C         6.98010131555434   -1.02986102888112    0.21254541125420
C         5.80420846986830   -2.05720457161236    0.22815366396553
C         8.84633971452218    0.01424474623022    1.39242208242865
O        10.03526463260055   -0.26861244067053    1.40114126012652
C         8.26989609141160    1.40799740950614    1.29892518594249
H         0.40430472672829   -0.25066225240349    0.22755029838228
H         0.95118281571108    0.13850063509180   -1.38949710106030
H         1.13096642268273    1.35423543668848   -0.16591525656193
H         1.52252002305599   -2.33197055109858   -0.45207625328511
H         2.80727452855125   -3.41082988864355   -0.26323521838458
H         6.16753891012447    1.95682443068133    1.72066436664469
H         5.84476284949915   -0.34794295190623    2.67656680372209
H         7.37801924227412    0.31896279923580    3.32010667266299
H         7.87459725209075   -1.92797934345002    2.03180223558958
H         7.63812683667285   -1.18476490240769   -0.65180362649490
H         5.67985852249855   -2.51047939987413    1.21715934911757
H         5.86186525490109   -2.93546048854763   -0.42399956132180
H         8.51197084732592    2.03125637324738    0.43621321498263
H         8.63990848697625    1.97069293298077    2.16005546512811
