30
 energy: -45.976781071787 gnorm: 0.124947951535 xtb: 6.4.1 (79825abcba525fcdf90b791dcacef51065a7a4e7)
C         1.09813877353699    0.22524807742080    0.02541716422938
C         2.56314411201075   -0.00819531312706   -0.10511732134308
C         3.28891091478199   -1.16003130743999   -0.35968103301170
N         2.80821713568219   -2.37385470435123   -0.68867818946574
C         4.68319841183546   -1.00876274499659   -0.25394438332638
C         5.01901160445187    0.27309999474994    0.08854310225453
S         3.67729583107899    1.27488276791068    0.23671905188177
N         6.35579603344922    0.43932466795151    0.33798720470339
C         6.67196611123571    0.96640378809957    1.69868264243609
C         6.74655792729283   -0.34902982017052    2.50105177703284
C         7.65494091477620   -1.10972266094397    1.53849844219273
C         7.02779962213923   -0.92392246791661    0.14663046574973
C         5.85312679500824   -1.90986532007713   -0.14741511833994
C         8.74627638507682   -0.06601732021526    1.48078850063163
O         9.92481744291739   -0.25575834484152    1.21874653705549
C         8.16449256531092    1.32205731159366    1.61625734972247
H         0.74385087184574    1.13364866487663   -0.47090211979702
H         1.05753962714713    0.41891784862468    1.10192459375952
H         0.46645749938020   -0.62194415743714   -0.26298439521740
H         1.82465567301371   -2.56680445086050   -0.52776040219938
H         3.42837066522765   -3.16209577576856   -0.52959142297821
H         5.92656677783456    1.67230356636795    2.07323699530644
H         5.73643183053304   -0.76283201499041    2.58423169443364
H         7.22109851092608   -0.23224743363890    3.48184314664640
H         7.84676657009606   -2.16647799911931    1.71365862612453
H         7.76681360238280   -0.88709210029550   -0.66367436523937
H         5.75257988247879   -2.73580002539294    0.56446648406166
H         5.95680332652143   -2.49898724624393   -1.06510140659764
H         8.52812662486966    1.94585054145175    0.79773664432826
H         8.53437511509587    1.81274746175174    2.52040936042391
