30
 energy: -45.981963054407 gnorm: 0.117795326747 xtb: 6.4.1 (79825abcba525fcdf90b791dcacef51065a7a4e7)
C         1.06199366873404    0.19709369098495   -0.13774211994884
C         2.53229723889421   -0.03134881168519   -0.07612123254966
C         3.25856125963680   -1.16760129229474   -0.39193312230012
N         2.66471072748864   -2.27199101015214   -0.88217568371061
C         4.62945351704396   -1.05888504626376   -0.09708528628110
C         4.96053896141967    0.22673544672022    0.23578502678619
S         3.63145227690805    1.25360976690644    0.30494984697254
N         6.29808691226005    0.44652243221452    0.43454311311444
C         6.73666345517225    0.89651604116773    1.78895234286513
C         6.85656552731133   -0.42808664831433    2.57047454721087
C         7.75127364985726   -1.08836275189666    1.52459930788083
C         6.98901070683519   -0.90079425343223    0.20214036891428
C         5.84501023371531   -1.90224880096791   -0.15388501253976
C         8.83299446412719   -0.04430477684921    1.37134327898918
O        10.01857986573611   -0.18337961959944    1.10928962694163
C         8.21162759851792    1.30446076362307    1.65118277092373
H         0.56907922974020   -0.58189317984550   -0.72702913218520
H         0.74210866385149    1.10373219991343   -0.66091008938209
H         0.74848970007232    0.31063761192489    0.90569182829648
H         1.74902008695808   -2.47413303604132   -0.49337427228526
H         3.26305997818381   -3.06663726272898   -0.67787569827229
H         6.04934934464525    1.62038114236008    2.23372672992722
H         5.87674058736364   -0.85780791721101    2.80239825441851
H         7.46866572469314   -0.25500166774158    3.46274891093744
H         8.12156087023133   -2.10824840354534    1.60784983510973
H         7.69267344932709   -0.66143736948311   -0.60511366957747
H         5.76675556827853   -2.71882036211451    0.57147029809952
H         6.00069552465473   -2.31362836073342   -1.15712503351195
H         8.32747423059613    2.07683577955430    0.88872604373398
H         8.66613357801449    1.51926609774952    2.62193699602807
