30
 energy: -45.976684779774 gnorm: 0.126821385024 xtb: 6.4.1 (79825abcba525fcdf90b791dcacef51065a7a4e7)
C         1.08353791951661    0.15209478047320   -0.15916072340033
C         2.55825118531978   -0.00648577355230   -0.02556166262190
C         3.25425790683775   -1.11448129630574   -0.47963971238549
N         2.87765061304359   -2.37811197265423   -0.75181127305445
C         4.62079899884105   -0.83922642387004   -0.29282359598798
C         4.92117780201468    0.35269203142175    0.30912595656857
S         3.54087298964726    1.24452982192502    0.66283496139149
N         6.25378056417598    0.60362354940047    0.50418720451046
C         6.71832385644318    0.81337932225932    1.90756528835596
C         6.80703116518648   -0.59525774158877    2.53013929009003
C         7.69972643218575   -1.13699798742849    1.41661567443271
C         6.96486940826991   -0.70268543145625    0.13736505495888
C         5.85848726362678   -1.63700840463173   -0.44689644908827
C         8.83574751564738   -0.14123823151194    1.45640255652072
O         9.97910083258983   -0.36554473976760    1.08754423911447
C         8.20000467325324    1.19447609478293    1.76506691621837
H         0.72424041253939   -0.86836740927687   -0.32227598790493
H         0.92273486196084    0.74850554660071   -1.06274309181056
H         0.58696776008464    0.38966703254082    0.78789200901945
H         1.99790015703634   -2.46451554294833   -1.25090129459801
H         3.53547689105224   -2.84525003177802   -1.36847131423428
H         6.08258863049527    1.54683107146542    2.40965580181353
H         5.92932465402414   -1.22099691364258    2.72141829740279
H         7.34745701265955   -0.64116095431361    3.48230072736970
H         7.97766618276775   -2.18653783473671    1.49027452497030
H         7.72817460662974   -0.46693771146914   -0.61488506769275
H         5.70784307851441   -2.61053089199912    0.03123902649512
H         6.14829845897023   -1.78508751315476   -1.49286186186435
H         8.44592257810292    1.89630959748804    0.96614389861873
H         8.63243728482253    1.71505667604637    2.62359978088711
