30
 energy: -45.981873614509 gnorm: 0.110950027159 xtb: 6.4.1 (79825abcba525fcdf90b791dcacef51065a7a4e7)
C         1.18637398061956    0.18824714934000   -0.10684630554558
C         2.65077835149405   -0.08112981815225   -0.07979822380169
C         3.25538024956683   -1.32574480210414   -0.01933016140315
N         2.59251212299872   -2.49198160343669    0.09543249219975
C         4.65092385401165   -1.15435633322472   -0.05374097064830
C         5.00377813019382    0.16457697588518    0.04190974215751
S         3.74396748432748    1.26271492974435   -0.13891123163057
N         6.35027882553937    0.40833841564229    0.10795401508615
C         6.70534595382424    1.09146276582212    1.38722585510993
C         6.67712236444351   -0.03002564248329    2.44608983354528
C         7.62506872223241   -0.94736449812590    1.67783902864100
C         6.98916190511839   -0.97355299698828    0.27781722153071
C         5.84385667176928   -2.01884895289275    0.09333239448121
C         8.81040710316511   -0.03977579227376    1.44348876088349
O         9.97169328567987   -0.41460945910399    1.37610332561894
C         8.21839760176552    1.34263057829535    1.29498696842617
H         0.68794933236341   -0.36207672479413    0.69674617699488
H         0.68190210657381   -0.10498339517483   -1.03288545395894
H         1.14431443898378    1.27201761776517    0.04678940115025
H         1.58408115122821   -2.37545423832508    0.09305797527008
H         2.93337150153811   -3.33115591776392   -0.36372363428855
H         6.14668847753980    2.02471075622376    1.49284610210877
H         5.66952300377978   -0.39519584213749    2.66947322680029
H         7.03291597833745    0.27243841489680    3.43740461760793
H         7.98091733031160   -1.84047823732232    2.18767197714486
H         7.84262194085997   -1.04943675462893   -0.40770424448343
H         5.70823632106797   -2.80893687143842    0.83926901538464
H         6.05227978980169   -2.46267760707885   -0.88622746391588
H         8.56938436075750    1.82941211023925    0.38329847856482
H         8.51159179848976    2.04159516985596    2.08274736636103
