30
 energy: -45.979035857065 gnorm: 0.115975154437 xtb: 6.4.1 (79825abcba525fcdf90b791dcacef51065a7a4e7)
C         1.14117687209966    0.18357819855833   -0.30735531385058
C         2.61174524824756   -0.00662263684249   -0.16941328962671
C         3.20701464306355   -1.24285023405150    0.01943047601579
N         2.56820690570127   -2.42685212360310   -0.03288667120340
C         4.60034805179726   -1.16560415754606    0.19480182646939
C         4.94918685704899    0.15744482599704    0.22786458356913
S         3.74988649760500    1.29694854749874   -0.07035675756534
N         6.29559664587071    0.40552148748501    0.27770691712705
C         6.78539816530429    1.06755311941828    1.52312916557606
C         6.82273551856625   -0.09707340718994    2.53405780823153
C         7.68319065523143   -0.99591192148878    1.64973408150175
C         6.92389645307327   -0.99114869769600    0.31235829380041
C         5.77648581708617   -2.04913298845956    0.36256216908872
C         8.81527782848713   -0.05706679956152    1.30244047151953
O        10.01744961612976   -0.26836650979133    1.24110453847065
C         8.25798638725841    1.34232863858955    1.18122140817525
H         0.57411829500090   -0.45370452540903    0.37774298269751
H         0.81242117394369   -0.09796630414602   -1.31267959295695
H         0.85332497825966    1.24048841186164   -0.31102435568054
H         1.70340844187688   -2.34713383485368   -0.55851571853853
H         3.20484093936532   -3.16192432392890   -0.32544256058627
H         6.10553891975383    1.90060774031432    1.71810872442684
H         5.82110103167292   -0.53745403657083    2.57010141673412
H         7.18274194306361    0.09987397179336    3.55012163823270
H         7.95523800151521   -2.02908519692502    1.85650264546157
H         7.49977599576122   -1.14141789274272   -0.60952780311716
H         5.79493835553588   -2.70795489439696    1.23701425035757
H         5.91607888062297   -2.69685996732366   -0.50974805520326
H         8.51244560729230    1.79459510260511    0.22099777892157
H         8.78249704317511    1.98220605108439    1.89573260537961
