30
 energy: -45.975074070489 gnorm: 0.109945886558 xtb: 6.4.1 (79825abcba525fcdf90b791dcacef51065a7a4e7)
C         1.08201531310557    0.08845732515202   -0.10595085709679
C         2.54149927660500   -0.04946449995577    0.15607932664018
C         3.35414786488861   -0.75682630151643   -0.71426992150723
N         2.85170219082485   -1.26199995578360   -1.85664498723014
C         4.70641001352743   -0.48079960358447   -0.44353688274830
C         4.89300828833497    0.32745363067283    0.64510817677652
S         3.44858761863192    0.82660996210286    1.34526383486280
N         6.17799343334719    0.46538452191644    1.09967815772115
C         6.62137407099367   -0.21646899318574    2.35177934960361
C         7.11821398638341   -1.62496144757572    1.96574197279503
C         7.96954111686876   -1.07457713443953    0.82440880621551
C         6.99264051799354   -0.22077755927144   -0.00131262328666
C         6.00256133514884   -1.04465762496260   -0.88413038616802
C         8.74951600257434    0.06822004533381    1.43212433774590
O         9.82989897640121    0.47671901334547    1.03271490449083
C         7.93706696629171    0.53069264803055    2.61939897368783
H         1.08081960741184    0.11819884564258   -1.19964111267097
H         0.68078137993963    0.99936425588309    0.34933412414149
H         0.40276856763292   -0.71231243748594    0.20601551626457
H         1.94157843171010   -1.70367828406123   -1.77231063900015
H         3.53912780567273   -1.73881183144010   -2.43224853288333
H         5.84386620203306   -0.09285621407282    3.10967579577792
H         6.38885563195013   -2.33361591987700    1.56033955772522
H         7.67106429676560   -2.11645561280587    2.77417788464802
H         8.50611626249202   -1.86209969082744    0.29895152618668
H         7.39189295677016    0.59193231912224   -0.62114501804055
H         5.97554662760254   -2.11817585389806   -0.66992943815718
H         6.26178372097609   -0.81612560436496   -1.92361990528087
H         7.87387017947544    1.61977389815283    2.58429818869835
H         8.56323041147200    0.30989089658883    3.48787275579624
