30
 energy: -45.984373998141 gnorm: 0.118455676149 xtb: 6.4.1 (79825abcba525fcdf90b791dcacef51065a7a4e7)
C         1.10904372443389    0.25221428602237   -0.36522434962452
C         2.55511618083296   -0.05047507560390   -0.17806318416697
C         3.21237402418597   -1.26534341691885   -0.07621367766303
N         2.62545968538402   -2.47025893971540    0.05178249742744
C         4.59289015325824   -1.07541458113250    0.11405533222145
C         4.95303226487590    0.24288437270113    0.18906064178404
S         3.66368668971987    1.28010944537315   -0.10670648464658
N         6.30725227233049    0.42720826214179    0.28370994141527
C         6.80075584255433    1.03010542429436    1.55738071076813
C         6.85672645470807   -0.17188577634412    2.52268387076706
C         7.71814044434451   -1.03543076466503    1.60476330484233
C         6.95017510534457   -0.96319119273728    0.27429907638713
C         5.76990637804777   -1.97357143035130    0.11777474113991
C         8.86578743852251   -0.06488817012026    1.44786258622097
O        10.04336295114605   -0.38686635410460    1.39065564073194
C         8.28663894239207    1.32278150962483    1.29774501154716
H         0.49844841399148   -0.14135736990122    0.45289489138606
H         0.66149230361332   -0.19862526087188   -1.25655254600549
H         0.92624804926414    1.33226257460316   -0.36880287856765
H         1.75578747360092   -2.62587273519954   -0.44818938290897
H         3.22718911362799   -3.28510534562531   -0.02012031878171
H         6.18973565559521    1.92098724927772    1.72227319134307
H         5.83124657205476   -0.47982335501618    2.75087533662836
H         7.21291361188377    0.20819403461437    3.48676304229967
H         8.09876553907455   -1.96116885621171    2.03178033392007
H         7.62413293074451   -0.91217265967213   -0.59014873292909
H         5.65008312302068   -2.68055316215596    0.94534494777647
H         5.87839480458896   -2.54552508324333   -0.81015891589315
H         8.47099863916185    1.57305633418464    0.25146690245648
H         8.75039220392662    2.01784950339265    2.00265222485460
