30
 energy: -45.978313899588 gnorm: 0.117611042081 xtb: 6.4.1 (79825abcba525fcdf90b791dcacef51065a7a4e7)
C         1.11669280080446    0.20464502449200   -0.34410361587202
C         2.56082819035822   -0.04662588522781   -0.08121276722469
C         3.17813019822028   -1.28173880922021    0.02695636598358
N         2.43629374927610   -2.40025979026399    0.13308068034605
C         4.55211842547911   -1.16117774153366    0.30213162554461
C         4.99439584932894    0.11276642085371    0.06825727052131
S         3.74645629394273    1.21521840964114   -0.16190035776207
N         6.34220955332101    0.31659671311637    0.20499441781295
C         6.88487483810564    1.14831287409540    1.31990724561961
C         6.78601295270071    0.10693649725643    2.45370057607894
C         7.70587927387704   -0.87217573527572    1.72878171107412
C         6.95338548836588   -1.07407541724733    0.40284279751930
C         5.73411696658729   -2.04939604730018    0.37968450842168
C         8.91594933119780   -0.03129522990036    1.39364767744607
O        10.09006029946125   -0.37044567616099    1.38545721908423
C         8.38548335890457    1.34189734383966    1.05229241402314
H         0.63189604827056   -0.17295047973999    0.56112459306741
H         0.75769588962670   -0.40335055082465   -1.18045708127142
H         0.78312264125419    1.18542985079002   -0.70008598286241
H         1.45874454572251   -2.36822773295628   -0.13874424706321
H         2.78166289070571   -3.34292363522595   -0.01965445650946
H         6.27921704377771    2.05786218240943    1.33012086877647
H         5.76199473770144   -0.27140096995716    2.53587930216263
H         7.09058591336837    0.41976971083465    3.45876241283203
H         7.82429483407379   -1.76443857134978    2.34038191185706
H         7.60674282426030   -1.20767409627388   -0.46857423429687
H         5.80043133290890   -2.74933773753113    1.21917082486989
H         5.85245965434101   -2.64563317096343   -0.53161011364470
H         8.65300102431592    1.49093060189295    0.00465351853781
H         8.89158462272072    2.13953327174317    1.60249167031597
