30
 energy: -45.977364604587 gnorm: 0.117521131108 xtb: 6.4.1 (79825abcba525fcdf90b791dcacef51065a7a4e7)
C         1.21730514514227    0.23374546848003   -0.22678742444155
C         2.66842707834363   -0.09498767205111   -0.28967914619065
C         3.16411920735122   -1.33586800140829    0.07469925085254
N         2.38861951501411   -2.32810592953070    0.55086834841026
C         4.54252469473977   -1.24176529370539    0.33784001620989
C         5.03918162714641   -0.04047253120506   -0.09049149165264
S         3.89442070355026    1.10336971298157   -0.54532488788732
N         6.38574591084128    0.15060846148828    0.07412415725289
C         6.81883455949133    1.18948120654999    1.05516729668770
C         6.78771000402116    0.41210933608807    2.38725212373496
C         7.61887887361411   -0.76524110295840    1.88393668650341
C         6.84167722774413   -1.20178194552529    0.63073515383752
C         5.62436375224282   -2.17520011966745    0.72564211181729
C         8.81834172677905   -0.01857522646575    1.34779927534262
O         9.99266136612467   -0.35672444198241    1.33182528025889
C         8.33854605338518    1.33687992827870    0.88291988788848
H         0.67102994476804    0.07825226272515   -1.16190754849682
H         1.09313547991009    1.31802117395803   -0.14340510788256
H         0.79161651476475   -0.20550542027785    0.68193652702848
H         1.49125244585798   -2.39194540910122    0.08057678786980
H         2.83226000859863   -3.23396698675666    0.66843469138857
H         6.20410553983979    2.08706882977615    0.95196691168027
H         5.76272461979027    0.23231288323462    2.72722872007410
H         7.37058058603623    1.08329425773642    3.02799488664576
H         7.89070638659098   -1.60714660277983    2.51758876258142
H         7.53846933727138   -1.52860147982429   -0.15141688043652
H         5.52563017055357   -2.57510427416738    1.74022655436011
H         5.74985115940216   -2.97097136345286   -0.01662646132372
H         8.63452940365071    1.38248762801620   -0.16666939503672
H         8.70014736072144    2.16920453426739    1.49247794817909
