30
 energy: -45.970887221289 gnorm: 0.127043712795 xtb: 6.4.1 (79825abcba525fcdf90b791dcacef51065a7a4e7)
C         1.11819854433916    0.20483380803762   -0.26819795929369
C         2.58808282462384   -0.02301823544145   -0.19540130919776
C         3.17742175903007   -1.27624409491944   -0.17614372964166
N         2.53386411406686   -2.45876789284401   -0.16414742039388
C         4.55909539084109   -1.16548932715965    0.06220772488750
C         4.99270840950874    0.13255922473955    0.07923681041601
S         3.76366033864276    1.25060502872374   -0.17598953793411
N         6.32826436176747    0.32894146501858    0.31283891505031
C         6.73941427011897    1.06016423817274    1.54796522876822
C         6.83631960179778   -0.11394129997527    2.54386245736589
C         7.73378621216101   -0.93960596675326    1.62562843670726
C         6.94850229930342   -1.07175321276280    0.30995725292629
C         5.73529886698298   -2.05075955121110    0.22003290101137
C         8.87594270942490   -0.00284118442453    1.30685787795968
O        10.07158895656136   -0.19589780479095    1.14319398776474
C         8.23798662451430    1.36408473730534    1.39686325112334
H         0.67330867724665    0.06708909172471    0.72182414648673
H         0.65676012073033   -0.45941118644681   -1.00567859810230
H         1.00414464123667    1.28164974508340   -0.43369874748291
H         1.52064606529857   -2.40129399340109   -0.18870807789124
H         2.93147332688710   -3.17226096022861    0.43922439077515
H         6.06398729150618    1.89739652390157    1.74043893077423
H         5.89318570440861   -0.56148629535134    2.87357114255811
H         7.36055496864669    0.16403721009631    3.46510283377975
H         8.00615832428469   -1.85174850321757    2.15290392994941
H         7.70764327746918   -1.01395155481512   -0.48026803334386
H         5.63003383055007   -2.56027242154485    1.18355204446381
H         5.98633904673679   -2.64325543696033   -0.66647093448835
H         8.33955434446050    1.85216735884272    0.42589300392768
H         8.71872242652445    1.78975077724482    2.28161309999532
