30
 energy: -45.982703450984 gnorm: 0.112165554480 xtb: 6.4.1 (79825abcba525fcdf90b791dcacef51065a7a4e7)
C         1.12519948306545    0.10117437789288   -0.10089753011462
C         2.60882090356743    0.01599643447891   -0.00400631073643
C         3.24956277013335   -1.19952351730671   -0.17786660929067
N         2.70116914017653   -2.42258082538488   -0.30462678209809
C         4.63451795290831   -0.95464945481826   -0.17187525399087
C         4.97958386525192    0.34844610846372    0.06500394936825
S         3.65877185417340    1.35797994157451    0.31404841268003
N         6.33029771937055    0.51754635483090    0.21935037986613
C         6.74277471355348    0.94883135240694    1.58797157503723
C         6.72211725099126   -0.37144484268373    2.38557409976679
C         7.70463460648126   -1.05336819879011    1.43691064166956
C         6.96150051741826   -0.87335045484538    0.10256821126314
C         5.79464141501453   -1.87452879271097   -0.17034960974057
C         8.85459748949336   -0.07542949364797    1.50680804121788
O        10.01354116313259   -0.43553499551001    1.65103100850335
C         8.23468607947852    1.30258909411281    1.48809909013975
H         0.69771587000665    0.94453697002572    0.44959468248903
H         0.70940372440689   -0.85298052570257    0.23781595971952
H         0.83478355504028    0.05669610337764   -1.15617552360094
H         1.73464769970605   -2.48081745265961   -0.60952363951830
H         3.34504742358142   -3.04455090353886   -0.78399820529407
H         6.20253594481111    1.84328323621769    1.90782080237407
H         5.80187360943808   -0.96297259053603    2.42743639580315
H         7.14669960552262   -0.19461610698691    3.38017956218264
H         8.06962077617724   -2.07628145358930    1.50505451648236
H         7.61999771930205   -0.84676713533736   -0.77479535145276
H         5.68311381486689   -2.62046838376251    0.62349480563455
H         5.90956516116095   -2.36805777302488   -1.14152584071734
H         8.43825248073243    1.75977338890359    0.51811604422668
H         8.56944965850222    1.95147058554136    2.30171259800640
