30
 energy: -45.976951718162 gnorm: 0.117652438295 xtb: 6.4.1 (79825abcba525fcdf90b791dcacef51065a7a4e7)
C         1.14493506031675    0.18885465835431   -0.34439152106273
C         2.56928636146319   -0.05810817189696    0.01339111962994
C         3.23530620979565   -1.27195745687387   -0.02201705744715
N         2.58652687411935   -2.44377305628258   -0.15842249252171
C         4.63385303764583   -1.13243589587899    0.02994970267920
C         4.98123033700167    0.18255109735448    0.18284991737553
S         3.71055331233777    1.23914053976536   -0.12492384712341
N         6.31895911623432    0.47249099449085    0.23996531928093
C         6.77882274488592    1.06698941888053    1.53006804764624
C         6.76113005207521   -0.14951920971106    2.47849805028055
C         7.66702184971991   -1.03327480474704    1.62488322483808
C         6.97954116633705   -0.90955854008594    0.25477776537721
C         5.84576843472166   -1.97651873841003    0.13412253963466
C         8.83533345414657   -0.08979529057069    1.45588977602470
O        10.01527637784751   -0.30290290468655    1.21935962140376
C         8.28469799915336    1.31345496309114    1.34975436020832
H         0.43651282383543    0.44248361160205    0.44987207778973
H         0.65901142702931   -0.64698856032591   -0.85748883946421
H         1.18543497901700    1.06374114251228   -1.00231610586059
H         1.59151383887988   -2.37262202237648    0.02973667917263
H         2.93954184283513   -3.24074837612037    0.36257055425970
H         6.20584442712017    1.93987216838203    1.85252296976805
H         5.71410005627507   -0.45848075568918    2.56081959636487
H         7.08865686352717   -0.03097521271486    3.51746489820146
H         7.95452059048747   -1.96963607072244    2.09899510110737
H         7.65235283326129   -0.93801840848962   -0.61159775950001
H         5.90067779875981   -2.64621703486992    0.99872787762637
H         5.92349462291396   -2.58568523763164   -0.77298076399083
H         8.65981849834598    1.84753523784842    0.47490195044980
H         8.55719074897883    1.91077223499389    2.22384849675703
