30
 energy: -45.973223234783 gnorm: 0.132724705488 xtb: 6.4.1 (79825abcba525fcdf90b791dcacef51065a7a4e7)
C         1.16112276799978    0.24205857970503   -0.14187730770836
C         2.61616580119906   -0.06145848770431   -0.04966630006176
C         3.25127378172023   -1.29091986328712    0.00802998493882
N         2.70132666071961   -2.50183256947219   -0.20154447851854
C         4.64349008969011   -1.11161857220714    0.09569315213280
C         5.07881616305728    0.18595009918553    0.08883674845321
S         3.77158446592189    1.23042981060320   -0.07220196036780
N         6.43342857850333    0.38784387234642    0.12214904950317
C         6.69870410896181    1.07805900394441    1.41926120354016
C         6.70880731035783   -0.09992621129701    2.41524036965344
C         7.69353101050677   -0.98009035511161    1.64976503743274
C         6.97267327528434   -1.03583843488902    0.29242180549406
C         5.79024303453613   -2.04630879290062    0.15381902060591
C         8.82306315826371   -0.00384656272506    1.41573604798720
O         9.99570340147508   -0.28620801142166    1.21872451595751
C         8.20540664363745    1.37437028886338    1.36480330900990
H         0.61594922289546    0.25172666717101    0.80666721628491
H         0.65519726333703   -0.34355730013378   -0.91590440723409
H         0.94202539707328    1.24817160792403   -0.51559416329355
H         1.70074007162355   -2.53005768897171   -0.37050336882852
H         2.87234740528765   -3.22361353292079    0.49200229756559
H         6.03857685025329    1.94154665400964    1.53251623064075
H         5.66426236156147   -0.42627602486218    2.38478492546266
H         7.08300882017409    0.14835404722589    3.41479464253234
H         8.00197862672053   -1.98233294498058    1.94059122981962
H         7.66801062606718   -1.17534054276536   -0.54491754108293
H         5.63785129927557   -2.59559777870544    1.08875837205411
H         5.79152116432082   -2.74959949044265   -0.68602748269095
H         8.41584766932844    1.97187505350146    0.47596896163199
H         8.38866555073010    1.92292880385978    2.29247809541927
