30
 energy: -45.973098541995 gnorm: 0.128698013021 xtb: 6.4.1 (79825abcba525fcdf90b791dcacef51065a7a4e7)
C         1.14471516042160    0.26171100679046   -0.26935983569719
C         2.58177190574958   -0.04205737988242   -0.02366004496807
C         3.24329972627775   -1.24709228682037   -0.19259233394463
N         2.70603466409494   -2.46169988416543   -0.41338077883815
C         4.61975829803254   -1.03013570501933   -0.00182623237427
C         4.98174085304611    0.27786137119223    0.17524030583254
S         3.64852504858781    1.30018270383012    0.23110420501043
N         6.32755777175990    0.50757040884086    0.28862549833241
C         6.70747462263591    0.89551552068634    1.67946329144293
C         6.75404133547622   -0.40657401509127    2.50536893367765
C         7.68811834406971   -1.07394075299568    1.49916619349048
C         7.00725776545547   -0.85690139572227    0.13738530977251
C         5.84390167578152   -1.82935395070531   -0.23589877738042
C         8.82527916510448   -0.08076764679905    1.43484795351823
O        10.01724313331448   -0.32759439182486    1.32564570677495
C         8.18727321115259    1.28503624043854    1.54022134716000
H         0.87176800188834    0.84657003601060    0.61409029327442
H         0.51351655795326   -0.63249538039645   -0.26656912551035
H         1.07328526426361    0.79269803335640   -1.22480837798056
H         1.77150077817707   -2.73764675259037   -0.12874585222630
H         3.35728145626022   -3.14950523778559   -0.04728735916334
H         6.15709280913965    1.77002860421632    2.03514904049733
H         5.76626507857035   -0.87790313467576    2.47981869641499
H         7.17295637565268   -0.11460837952399    3.47492803969677
H         7.97535556021331   -2.08328081971777    1.78715479027981
H         7.83088529443709   -0.95895959406668   -0.58046835176463
H         5.81149595007142   -2.81091296796447    0.24839968829434
H         5.87437944439461   -2.11195508587169   -1.29380675755322
H         8.20375336382327    1.91620277886922    0.64989496167542
H         8.52715122712295    1.94825645284628    2.34003549259741
