30
 energy: -45.972099283310 gnorm: 0.119573820601 xtb: 6.4.1 (79825abcba525fcdf90b791dcacef51065a7a4e7)
C         1.09535279935791    0.28284345179851   -0.38484759304566
C         2.52070281177089    0.01582378592600   -0.04594709757525
C         3.15540365996959   -1.20573484885253   -0.19831386567308
N         2.69738511885891   -2.40083805771923   -0.61618971389477
C         4.54669357402820   -1.07261126637495   -0.04118165671869
C         4.85188452926276    0.21808706698929    0.29674816271467
S         3.59016300759685    1.32848468869305    0.32506742024364
N         6.18838191949278    0.44690859888861    0.49235247585263
C         6.76240180732696    0.85564342150826    1.80867500865639
C         6.96280703510652   -0.47821719826809    2.55725990085898
C         7.84825347437719   -1.07432641611770    1.46594849843295
C         6.88492878350693   -0.90078615941239    0.27977241372013
C         5.75731546659562   -1.92461350592686   -0.06471000281307
C         8.93653959451295   -0.03981482716742    1.29540969538708
O        10.15228022793019   -0.13422006095710    1.21362314655729
C         8.19688998599259    1.26938408752563    1.44538324939704
H         0.94189109888040    0.82430062184738   -1.32310023301995
H         0.71833366836476    0.96564935037052    0.38304380508779
H         0.49171650155716   -0.61012425833040   -0.18949340761061
H         1.74581622042268   -2.67855699817708   -0.83506438864748
H         3.39147807577683   -3.12263987955415   -0.78489088759326
H         6.23035530725067    1.69084397354042    2.27081371945501
H         6.04591216357137   -1.06065857043547    2.69353803674323
H         7.45348289889435   -0.39190938645017    3.53325516809414
H         8.32030729857376   -2.02197713878682    1.71760961150046
H         7.50801378271899   -0.77912545174300   -0.61524479855641
H         5.83632587186278   -2.73872450286282    0.66332425550841
H         6.02088688129966   -2.27431554129537   -1.06880172572057
H         8.23192239493573    1.84028077909387    0.51577388729048
H         8.61214624886912    1.77582982480879    2.32068647352423
