30
 energy: -45.979295071792 gnorm: 0.115209783573 xtb: 6.4.1 (79825abcba525fcdf90b791dcacef51065a7a4e7)
C         1.14662484346666    0.15187100854991   -0.60702923964391
C         2.54617615901450   -0.07056239889700   -0.14925726161980
C         3.17143821311971   -1.30634900006285   -0.13721115414476
N         2.57022960874063   -2.47462430058646   -0.43107150871604
C         4.53985683116754   -1.17047419045813    0.15786267405557
C         4.91332423534009    0.13602104852457    0.32166915294165
S         3.64114076180391    1.22770751401457    0.19718648305537
N         6.26263655798556    0.35430615962102    0.41415424024896
C         6.84564024122510    1.12621517812229    1.55148936190793
C         7.04938978745581    0.03705477972035    2.62477473829492
C         7.78065906474001   -0.92552952781114    1.69257364914811
C         6.87343426879113   -1.04987975232689    0.45701524350130
C         5.69365255952845   -2.07027253306778    0.38410396070464
C         8.89671702674252   -0.03002194688287    1.20662592969445
O        10.03579782747974   -0.33075686192729    0.88154114825397
C         8.32889249063467    1.37013901534961    1.23308316541283
H         0.45050717493947   -0.02360140811370    0.21860626942756
H         0.89579109799591   -0.44670690981540   -1.48839830479724
H         1.06253421811557    1.20963798225854   -0.87903872231239
H         1.64374618930691   -2.34404170947343   -0.82489119410300
H         2.61683310922710   -3.15211597435608    0.32394910411382
H         6.40151012358507    2.09652741281844    1.78696385896784
H         6.03618817701375   -0.27200818897918    2.90119555088258
H         7.64574333947275    0.37499586820424    3.47972319626196
H         8.11344392832824   -1.83884004191560    2.18178542286080
H         7.57438103468918   -1.27727374083195   -0.35603928347217
H         5.62994970111898   -2.67938291387967    1.29183725059762
H         5.82610936369616   -2.67489011517294   -0.51969599688277
H         8.29683723162939    1.80941340234478    0.23441688410051
H         8.79690775344897    2.05548595396197    1.94466033759452
