30
 energy: -45.977680257728 gnorm: 0.107102167761 xtb: 6.4.1 (79825abcba525fcdf90b791dcacef51065a7a4e7)
C         1.20870291561699    0.29288805365429    0.00728768575173
C         2.63549333782291   -0.12826587388083   -0.06108024820362
C         3.28402432909254   -1.35158030044850   -0.02679220317752
N         2.65268549085499   -2.52051050135304   -0.24516425806962
C         4.66873124149075   -1.13926882368266    0.09815046997457
C         5.01754605273895    0.18346452712587    0.05404848322828
S         3.71475101526386    1.22474526951725   -0.15615513622244
N         6.36326047576853    0.43909172031664    0.07756524810265
C         6.71389318411698    1.11061884456927    1.36417941145036
C         6.56741159872982   -0.00693746123412    2.41742999518696
C         7.57683786673635   -0.92492849540471    1.73283285683356
C         6.99582612921849   -0.93675909346362    0.30896145326132
C         5.87440401200435   -1.99831657439062    0.07677508511649
C         8.81143826172089   -0.07229502030229    1.55271510240364
O         9.99450285137550   -0.37804689032979    1.53034005486666
C         8.23584743256294    1.29374729454508    1.25911844752498
H         0.64472189452595   -0.18254112547965    0.81533278423332
H         0.62572062267621    0.07421913292483   -0.89290122742607
H         1.14424347351699    1.37976483653268    0.12760065418134
H         1.65450658621702   -2.51480566724983   -0.06043845687340
H         3.15376001427621   -3.40347153397105   -0.22220491044337
H         6.08800244462009    2.00593111375262    1.39388369168993
H         5.60249455320231   -0.51395821759800    2.31559221539688
H         6.91388410694099    0.30657324584673    3.40861435722802
H         7.74499700419703   -1.95236497523726    2.04954534506975
H         7.81232426320379   -1.00660411161063   -0.42079503055392
H         5.91441936851161   -2.67588397924022    0.93605060401233
H         5.97356521781115   -2.59762812497822   -0.83479187243468
H         8.50465760047994    1.71306435293199    0.28791395582621
H         8.73467186213592    1.90879131735685    2.01276015276089
