30
 energy: -45.973297238652 gnorm: 0.130183107181 xtb: 6.4.1 (79825abcba525fcdf90b791dcacef51065a7a4e7)
C         1.09054765291836    0.22402094577164   -0.38287492691155
C         2.53271258351686   -0.08758413606675   -0.18079004904758
C         3.22255685990401   -1.28853888823990   -0.19021613968905
N         2.65175351874464   -2.49426777834594   -0.37207948802927
C         4.59280929590232   -1.09475457925935    0.06069412392626
C         4.95415463470550    0.22217387655300    0.15217781452518
S         3.61292640811182    1.23489047711614    0.11699261190946
N         6.31297925720521    0.35537560893397    0.26486575056534
C         6.87584681065796    1.14084497603613    1.40305993160231
C         6.91536668512549    0.09586144802200    2.53715576308182
C         7.71579552635476   -0.90276759805638    1.70506449877568
C         6.91657773961246   -1.04616874240888    0.39899734082344
C         5.70452089455706   -2.02939403716850    0.34811920212008
C         8.90525650059891   -0.03761753260670    1.35813173551415
O        10.01173333392822   -0.52196501526923    1.17173643612220
C         8.38570747152440    1.37674022829748    1.24308244395141
H         0.37989552690725   -0.48886437992126    0.04585861144340
H         0.79316188834455    0.25335208561531   -1.43583547610225
H         0.76138220356587    1.11993421536404    0.15463869528245
H         1.64532843002057   -2.53261006977119   -0.24497441207237
H         3.11619606717206   -3.39317381328623   -0.28556905444454
H         6.18184183164848    1.94236715637362    1.66787102024360
H         5.95103007967690   -0.26559928856419    2.90851399382183
H         7.49539298617503    0.42752442785811    3.40568772054007
H         7.98513837879133   -1.89300067497494    2.06714584112242
H         7.42054818450186   -1.19505103084604   -0.56429903601033
H         5.65925440892041   -2.45780347748237    1.35483144143102
H         6.03021846664766   -2.85608230113158   -0.29255950650175
H         8.63647744224784    1.67208008692575    0.22268415963476
H         8.71707792888697    2.15157275911709    1.93943648772844
