30
 energy: -45.976905996252 gnorm: 0.108163283879 xtb: 6.4.1 (79825abcba525fcdf90b791dcacef51065a7a4e7)
C         1.21804177689961    0.13328236509281   -0.76379198351563
C         2.55413178528005   -0.09845842835453   -0.14821471236430
C         3.13295808135277   -1.29474997955573    0.24180182466882
N         2.35004469088847   -2.34882568708620    0.53953305819821
C         4.51478554319422   -1.20406540792452    0.48762535051165
C         4.95970640323402    0.05765612794850    0.19893096149510
S         3.75967375337097    1.14205031129837   -0.25903949352950
N         6.31609306913693    0.24949180648884    0.18280990093325
C         6.91798663733461    1.26319785971670    1.09899337601341
C         6.97367347864663    0.51285113908586    2.44569472405716
C         7.70556286706678   -0.71124290993602    1.90140265716646
C         6.86622872252160   -1.09426701846163    0.67098195543307
C         5.66198035747744   -2.07581575005176    0.82830430299249
C         8.89287771427335   -0.05973208012984    1.23096885961428
O        10.00169082894498   -0.56380356202845    1.13060905531536
C         8.38791321559914    1.24158556612747    0.65203998287575
H         1.25341975989751    0.05024265980957   -1.85415759882208
H         0.71848487736995    1.02017633824902   -0.36144076266063
H         0.49463740950337   -0.67799238030966   -0.62795834906475
H         1.49213560146652   -2.28489852439183    0.00062435381423
H         2.70431852651580   -3.30049812508721    0.53382300174382
H         6.38287639646505    2.21026646182904    1.20350997556615
H         6.00383118920395    0.09655700693905    2.73657445101868
H         7.46755344609869    1.06563368674976    3.25272175909115
H         7.95210343988895   -1.50039599859471    2.60897962566473
H         7.53189911751840   -1.46776528718068   -0.11735428061754
H         5.67939901491030   -2.53610701319111    1.82172353965460
H         5.70975845141880   -2.92345044342072    0.13606571153009
H         8.37222981684572    1.21063310217684   -0.43888615710604
H         8.99778065428231    2.00275886098197    1.14575822693076
