30
 energy: -45.979275992530 gnorm: 0.127383577712 xtb: 6.4.1 (79825abcba525fcdf90b791dcacef51065a7a4e7)
C         1.07217123933226   -0.14797171818109    0.10173733080968
C         2.55914887937780   -0.09161492422865    0.04260094882597
C         3.40549434066851   -0.81777853971315   -0.77877110459206
N         3.04185714039839   -1.63827654279314   -1.78237655745370
C         4.71457497580728   -0.47499013824393   -0.39549044794642
C         4.87540961133109    0.29584454784679    0.72396762924716
S         3.37169228684051    0.75853008767161    1.31598313495327
N         6.15590009678500    0.68745949653485    1.01349736624834
C         6.64755623427830    0.16892112382562    2.32447417332662
C         6.86520308339579   -1.32677598002972    2.01585504004563
C         7.76465359540303   -1.07517418017164    0.80837523342893
C         7.04082074815050   -0.00594766329752   -0.02705581736528
C         6.03927246827656   -0.66134295099482   -1.02993189250382
C         8.83582178467165   -0.24279779532358    1.47426760286660
O        10.02729960508188   -0.32947071330927    1.21640120124608
C         8.10655305990336    0.62804047191282    2.47095373471690
H         0.65609771576910   -0.09627590981900   -0.90883416031717
H         0.63475088362779    0.75220991993172    0.54486369768347
H         0.66789030660671   -1.05690564495750    0.56035200150510
H         2.03391580861139   -1.67795819149726   -1.89638061724658
H         3.41017572166885   -1.41692382809187   -2.70246752306637
H         5.97115508487667    0.52063619800282    3.10740687596154
H         5.94199377225068   -1.82463349058049    1.70228151792560
H         7.29481174496979   -1.97171895932057    2.79062181435556
H         8.18686333654643   -1.90532614577213    0.24552830438426
H         7.66185494706386    0.78557001439314   -0.46512926693600
H         6.35528571666145   -1.69046155345738   -1.23019114526105
H         5.93727752788394   -0.11609508134535   -1.97452883088198
H         8.42735505185055    1.66382885531360    2.34624457113340
H         8.30426723322055    0.38117750009566    3.51739941449015
