30
 energy: -45.977389197948 gnorm: 0.116622674515 xtb: 6.4.1 (79825abcba525fcdf90b791dcacef51065a7a4e7)
C         1.09212249765437    0.17394828758566   -0.40502938617920
C         2.52741366195979   -0.07600159332418   -0.09641955809597
C         3.22993451087525   -1.26947290644266   -0.11531288116592
N         2.68495489410865   -2.45418078149685   -0.45018201931360
C         4.59784647328304   -1.14666630375556    0.18773074932084
C         4.93549739225536    0.17944752407886    0.21330894160038
S         3.62139857467552    1.22753417363295    0.23292377184649
N         6.28906038832221    0.34495098971617    0.34491990093612
C         6.89615156574342    1.15987548463331    1.43881494671934
C         6.80878864625532    0.13365556077050    2.58727745725902
C         7.66768472598047   -0.83230901385118    1.77516161663769
C         6.93522809961609   -1.04078136342771    0.43905872035496
C         5.75930425529528   -2.05833801744450    0.29698855824196
C         8.85209891159061   -0.04129731238283    1.27005973584501
O         9.97793934427355   -0.50049035539104    1.14656179170720
C         8.35868259370842    1.36392863289876    1.01421645104246
H         0.50586659378532   -0.40783781716108    0.31251734612775
H         0.85872112742362   -0.15599038858456   -1.42222592119849
H         0.90234337682371    1.25262351548344   -0.38566435232625
H         1.71021126458869   -2.40325833411749   -0.72910682514538
H         3.11390432432426   -3.29813475598984   -0.08280338528486
H         6.35739396906758    2.09897365087685    1.58727542847055
H         5.84144085432415   -0.34989927587404    2.75733291114828
H         7.31425035049328    0.25799568877909    3.55155262660405
H         7.96871481242729   -1.77144237944527    2.23518273131421
H         7.69337729214867   -1.17141645174074   -0.34339660350345
H         5.73286807674879   -2.72608578737227    1.16443727845636
H         5.90031429969603   -2.65978406080714   -0.60763313858265
H         8.48534114305745    1.66988724626255   -0.02581759051694
H         8.87665189669634    2.09877389462559    1.63614170866583
