30
 energy: -45.971823638841 gnorm: 0.121887209041 xtb: 6.4.1 (79825abcba525fcdf90b791dcacef51065a7a4e7)
C         1.14107312005477    0.32573295553140   -0.46800748649280
C         2.56119612241995   -0.05583403914987   -0.23256532968262
C         3.20433833303906   -1.28158478432906   -0.18598719740057
N         2.68984905527466   -2.51534859234457   -0.34661268011140
C         4.55235770959405   -1.16235726543634    0.19706452545160
C         4.94436169723255    0.14039196589052    0.34678956867929
S         3.67326804758107    1.22067236703653    0.13932572882454
N         6.29615130390609    0.36005459049506    0.38226924049441
C         6.82659611769629    1.10517310944393    1.56239410128112
C         6.89647338038725    0.00398987055265    2.64046570853793
C         7.70121801618187   -0.91408887393895    1.72403804475054
C         6.91098964785096   -1.04272776994283    0.41098224337425
C         5.72184035154885   -2.05393512955950    0.36872126063123
C         8.84791447107023   -0.01548919061370    1.32245339034419
O         9.89772017783613   -0.48588956058852    0.90982990234517
C         8.30281891901744    1.39190333183732    1.24700450742495
H         0.68016940563919    0.44379711043353    0.51721989668044
H         0.75797451117361   -0.47431943973457   -1.10923766492129
H         0.97316355432304    1.23045904857425   -1.06232091479023
H         1.73690066054247   -2.51659035847328   -0.69647708887503
H         3.20240007558459   -3.25261314587034   -0.82090734021980
H         6.16767609895068    1.96129537753296    1.72696839125896
H         5.92548219763010   -0.46419256780207    2.83148197598161
H         7.45580179116224    0.34273709688613    3.51977262220609
H         7.93761478339858   -1.93209546490231    2.02733520203222
H         7.56565129603762   -1.24399671064963   -0.44633974772945
H         5.64097357922947   -2.36778001265370    1.41467306699201
H         5.98531861999575   -2.88246852151525   -0.29766693385983
H         8.52547472134429    1.93298324932665    0.32560297425085
H         8.71875846307782    2.12982131639137    1.93805597204370
