30
 energy: -45.979364200170 gnorm: 0.117681445935 xtb: 6.4.1 (79825abcba525fcdf90b791dcacef51065a7a4e7)
C         1.16990323274555    0.26128889612584   -0.39503487501850
C         2.61699525073153   -0.01198650321119   -0.17362808797407
C         3.20171961318136   -1.26738224927230   -0.15504736629613
N         2.54089722412388   -2.43635014070837   -0.25251907021469
C         4.55649013146016   -1.16285415660557    0.20795509357302
C         4.98669071128588    0.13536197966838    0.15501550777855
S         3.78592400988515    1.26784770873789   -0.16335763522134
N         6.32586061237739    0.35441490383889    0.34339121734846
C         6.69568421307374    1.06908204013064    1.60106739970258
C         6.87282784186490   -0.12526168333173    2.56121788308146
C         7.76937560558108   -0.98107919122624    1.67009461779232
C         6.93152313219676   -1.05210489566278    0.38242891522674
C         5.72622537028091   -2.04396342227892    0.42574561432450
C         8.85766077919170    0.01256633578749    1.33547792079551
O         9.99011523796637   -0.26341045447916    0.96804032943775
C         8.18377496074947    1.36494774081598    1.35823415111459
H         0.53043758072841   -0.57884034184059   -0.10813607433988
H         0.97936133577572    0.47482502882074   -1.45150098065816
H         0.82872292061820    1.11803006125249    0.19616893299087
H         1.55843771279285   -2.50633915707829   -0.00677094426313
H         3.13273935161645   -3.22909354073127   -0.02338202494895
H         5.96999361537690    1.86671088975835    1.77817471216596
H         5.98883109098569   -0.70111440242231    2.85353496690631
H         7.30804436176743    0.24560082599404    3.49600458731321
H         8.16655468914303   -1.96253750887175    1.92148746555327
H         7.46325222757890   -1.05614154317091   -0.57743562288765
H         5.62019349551185   -2.52790735458060    1.40227454203175
H         5.99278510956924   -2.87550613398874   -0.23565005442036
H         8.37768717228743    1.82590146519850    0.38805706133589
H         8.62826356758621    2.01684881619582    2.11489500588324
