30
 energy: -45.976966791539 gnorm: 0.123262206105 xtb: 6.4.1 (79825abcba525fcdf90b791dcacef51065a7a4e7)
C         1.15473047063047    0.29873378141828   -0.07197937185798
C         2.60544128410331   -0.02987160724102   -0.14431433697361
C         3.20423665301097   -1.27866825125659   -0.15905704757983
N         2.63160400988237   -2.47516216068104   -0.38963689674645
C         4.60450056031892   -1.19185336020567   -0.05993984518791
C         5.02167588203337    0.11130325311172   -0.02850966086230
S         3.77319678097413    1.23215224015687    0.07504481166978
N         6.36001613841882    0.36376093227008    0.11966619898592
C         6.73336721589778    1.08836241266018    1.37059771391622
C         6.73629263483122   -0.02306808218216    2.44038247860545
C         7.67307796398303   -0.94281504118816    1.66139534583855
C         6.95163725899710   -1.03685861545487    0.30647708261817
C         5.78287629271579   -2.06158301759762    0.15701112610653
C         8.83085551618426    0.01164177844258    1.48187457252620
O         9.99110138642856   -0.37113685901951    1.51248028990039
C         8.23812574103740    1.38819478336053    1.28861659255450
H         0.86976499786877   -0.11631518796688    0.89939769269360
H         0.65629765482545   -0.27183260079170   -0.86194345568344
H         0.91809940471786    1.35882408515255   -0.21391478075864
H         1.64561904545469   -2.57023363232379   -0.16757304199652
H         3.15144008257276   -3.30330481913769   -0.11545961318772
H         6.10334646463745    1.98125909128540    1.37447047565883
H         5.69122069329033   -0.34911866961417    2.43574157906522
H         6.91266693732712    0.45675427985207    3.40963023306675
H         8.01081754877387   -1.83973951964416    2.17682572286656
H         7.63137631621473   -1.16102479647134   -0.54594865025896
H         5.65931818020894   -2.79210293760667    0.96331583078429
H         5.91266445827327   -2.74043031530377   -0.69286120043731
H         8.55134758127003    1.84862064082827    0.34988128549666
H         8.58842319146538    2.02422182500091    2.10583264800732
