30
 energy: -45.974954561355 gnorm: 0.126273221654 xtb: 6.4.1 (79825abcba525fcdf90b791dcacef51065a7a4e7)
C         1.15301931118947    0.09049996339863   -0.50187981940022
C         2.58210713828138   -0.05457060334058   -0.10889354272916
C         3.22852037352319   -1.27870812120590   -0.06526388665265
N         2.52421783582565   -2.42448624188667   -0.12709691748722
C         4.60249924118467   -1.05186081100062    0.13177020890622
C         4.99949772244558    0.25761806595963    0.10181081259810
S         3.67819113041064    1.28661124663213   -0.04326846612932
N         6.34197557333279    0.44275503115327    0.30261708353397
C         6.78470887416410    1.10392622540627    1.56598871471148
C         6.82241922011037   -0.09193865122759    2.53974991562438
C         7.72883037711172   -0.97970937542876    1.69086586672647
C         6.92735542113753   -0.97083724185886    0.37835546288868
C         5.75678067984979   -1.97887653642614    0.15028986374714
C         8.87608330544776   -0.05996697293737    1.34222705942704
O        10.03044155165354   -0.37946808170079    1.09932223287656
C         8.28848175451938    1.33224880272562    1.34814817145387
H         0.49747597202370   -0.05714352593193    0.36154863835165
H         0.83081380235315   -0.60809385004975   -1.28045211476306
H         0.84297539039249    1.09408384648103   -0.81272307596009
H         1.51415945983292   -2.39170853099818   -0.03105009884891
H         2.99357023451750   -3.24086052440960    0.25298773791981
H         6.16606235371412    1.93732328573449    1.90794112849298
H         5.95953379958694   -0.71226787914183    2.80266870208240
H         7.41536047977897    0.17702798835406    3.42114438572059
H         7.94693670884819   -2.00750039496122    1.97421241439509
H         7.64616092993085   -1.20739579072590   -0.41628329163892
H         5.73797312820331   -2.63827625303639    1.02429874616652
H         6.01272270250042   -2.46520437189256   -0.79730736805956
H         8.50738465081925    1.99300190102879    0.50742780510151
H         8.63367508399112    1.84242070439469    2.25127993302171
