30
 energy: -45.977738555745 gnorm: 0.118768896011 xtb: 6.4.1 (79825abcba525fcdf90b791dcacef51065a7a4e7)
C         1.11039585346130    0.25473305125467   -0.36562540710293
C         2.53718998272408   -0.05570059329013   -0.07293926341954
C         3.20997109458218   -1.26572938253700   -0.03470049178827
N         2.63864199059802   -2.47205722900309   -0.21085116815270
C         4.59710462939061   -1.15419001057635    0.16906305568434
C         4.97756321858467    0.16019756152440    0.13945162305683
S         3.69136387173252    1.23480406633046    0.01046264830727
N         6.32932207494070    0.36509390393402    0.22669322197359
C         6.80910960318541    1.09990090350796    1.43463800239894
C         6.73764324199900   -0.08156195765070    2.42396292984860
C         7.72257016867379   -0.94960619062813    1.64502754680078
C         6.99975589073135   -1.01087481141029    0.28896336834697
C         5.80321151350446   -2.01158646822889    0.21643680781897
C         8.87641451934622   -0.00353559268136    1.40574105668711
O        10.04832673598091   -0.34559413843126    1.46270052371501
C         8.29208331046005    1.36254249226030    1.13012699551576
H         0.41071411698344   -0.54142654374518   -0.09429581749499
H         1.01994272922924    0.64174094078117   -1.38546247786308
H         0.84085327043778    1.12354348595413    0.24465861934267
H         1.63064417949841   -2.41441136655193   -0.10533031611900
H         3.04344182258233   -3.18882550434659    0.38379437217343
H         6.11116224187892    1.90903653151180    1.66349306835409
H         5.78609829566107   -0.62119732072526    2.38081462694334
H         6.90022439795897    0.00449179726031    3.50421323519446
H         7.99530815452316   -1.93157855957343    2.02654330764832
H         7.75683227300298   -1.08898764349047   -0.50149586318189
H         5.81973403703658   -2.75761617621684    1.01782305818577
H         5.95552314385095   -2.50126764777924   -0.75153793357503
H         8.51082884680181    1.68498453739174    0.11056562622344
H         8.62207460058799    2.03488355382167    1.92645860213084
