30
 energy: -45.980257473881 gnorm: 0.117328663804 xtb: 6.4.1 (79825abcba525fcdf90b791dcacef51065a7a4e7)
C         1.14073699409990    0.18216990725724   -0.27990955612161
C         2.60170983638974   -0.08866789882144   -0.18000492139723
C         3.16420471349187   -1.30267642102029    0.17783456937919
N         2.42664250893906   -2.36861711680792    0.54176493883421
C         4.55631519222889   -1.15691492843064    0.31524657553225
C         5.03748757882430    0.06648145095099   -0.06556140681376
S         3.81189181960609    1.06513118603865   -0.63682300412606
N         6.38334401357632    0.25640265168947    0.10603704034801
C         6.88111816820281    1.20935517722855    1.14207293542224
C         6.83794485206950    0.37554855853649    2.43923458179318
C         7.67108199031863   -0.78904025632694    1.91014330975863
C         6.87489014382131   -1.09625994637243    0.63076104221286
C         5.64695548819045   -2.05155246674828    0.76490665397653
C         8.84473117824286   -0.02685177183909    1.33980947532047
O         9.97541440180365   -0.48942743948582    1.30508380403481
C         8.37877769551033    1.31107927343493    0.81406878226755
H         0.77957127583401    0.20421143944256   -1.31243939525247
H         0.92157498321119    1.23391351603938   -0.07055837601623
H         0.59252752040650   -0.45987276446599    0.41807249933495
H         1.56905227123930   -2.39774994533620   -0.00064408304981
H         2.79729120275241   -3.29897257506112    0.70993527202369
H         6.31132122925375    2.13907682595343    1.07027647280595
H         5.77630993553218    0.17059462181731    2.61078945562444
H         7.32948964236123    0.85185547646929    3.29497639005232
H         7.98906477957828   -1.66480590581018    2.47239902691335
H         7.60856222061122   -1.46195843982608   -0.09867843591090
H         5.42300921094114   -2.31601956040534    1.80363590374599
H         5.79459267865335   -2.93969357384337    0.14091128016502
H         8.59657856422387    1.27972420230933   -0.25499787092186
H         8.90436252004645    2.10187933921297    1.35580361729459
