30
 energy: -45.975040783156 gnorm: 0.130288269118 xtb: 6.4.1 (79825abcba525fcdf90b791dcacef51065a7a4e7)
C         1.10121426379032    0.22842705027543   -0.49195599932121
C         2.52690007437831   -0.08408647107690   -0.19609966678944
C         3.18166788639818   -1.30437677771449   -0.17519585435283
N         2.68463245251901   -2.52039448934598   -0.47003409005836
C         4.53803317538933   -1.14346777130549    0.16018683616622
C         4.89556146804769    0.17324035366360    0.26832340822975
S         3.61745377954968    1.24171351173780    0.04353034136467
N         6.23558423270397    0.39344184138342    0.44914357923317
C         6.84083636235252    1.12012567132743    1.60450866544226
C         7.06411536723056    0.00237205705264    2.64397924984720
C         7.79445348513485   -0.92699133639990    1.67795021683064
C         6.89711754428582   -0.98810598656659    0.43048174334076
C         5.70516138350766   -1.99555104936806    0.48241749989188
C         8.89670364935360   -0.01109185681865    1.19853692267028
O        10.02994820446691   -0.44083592256029    1.04136347879252
C         8.30109141281797    1.37772460576520    1.20174749743836
H         0.51975077520754   -0.28711793653824    0.27821148024854
H         0.84067743375774   -0.14902951829089   -1.48577269271448
H         1.02866705194295    1.32082437355905   -0.45539979492201
H         1.67193112265575   -2.58823815167751   -0.45131133236970
H         3.12220258740977   -3.22521641589047    0.11561205624931
H         6.17576854556832    1.92609640956118    1.92435487890965
H         6.11861480517495   -0.47244580624689    2.92519548722291
H         7.56669354241702    0.40174958126127    3.53206222775634
H         8.08792511485176   -1.91784379246710    2.01897196423148
H         7.47934654959935   -1.11972695030537   -0.49026652143355
H         5.63506976542172   -2.55874634450915    1.41887436681109
H         5.75642972349423   -2.67134024419634   -0.37818816335965
H         8.23794081306390    1.51524924128019    0.12081140134690
H         8.78583277084157    2.26355065908334    1.62057778027194
