30
 energy: -45.971379068373 gnorm: 0.114680753311 xtb: 6.4.1 (79825abcba525fcdf90b791dcacef51065a7a4e7)
C         1.03005417088395    0.19834263829068   -0.06454088911428
C         2.49759890519836   -0.02834028200627    0.04816686954232
C         3.36448947831613   -0.63707030556254   -0.84414182662049
N         3.09207289794186   -1.47510823159422   -1.86205859315651
C         4.68392206330503   -0.51367206410926   -0.37300428043783
C         4.85294986291014    0.27073784878077    0.73576574681084
S         3.35265026784543    0.59738433196141    1.41996547526722
N         6.15408515187965    0.52244956600031    1.08294553349693
C         6.70336293257011    0.03112211967893    2.38146748654651
C         6.92157727079584   -1.44818004786163    2.00229292545536
C         7.87055714008401   -1.12879662025180    0.85001101290677
C         7.00438688121757   -0.17150279868338    0.01427062263060
C         5.99875307603467   -0.88959367766056   -0.94042749877429
C         8.83160667352417   -0.12943555122866    1.45111469138045
O         9.96263612420618    0.10107595649056    1.04953842360184
C         8.07529458629759    0.71999211742318    2.44612226332923
H         0.70306703596265    0.97283325571634   -0.76474663286137
H         0.60237165381005    0.46978234754034    0.90573364741836
H         0.42262400417055   -0.70680470707555   -0.17256058848023
H         2.17853691466956   -1.88081921040542   -2.03916847569360
H         3.86360513800802   -1.82906636047333   -2.41944054507245
H         6.03385463370117    0.23271572982524    3.22130335334396
H         6.03965082370556   -1.92497722563727    1.56254745351054
H         7.43879013800938   -2.07051930519598    2.74118622071307
H         8.40489967980260   -1.94871087805392    0.37416578785663
H         7.66816532078756    0.59451207414958   -0.40609999474695
H         6.04520424319476   -1.98271913629956   -0.89601747242200
H         5.99359353030107   -0.48497506675533   -1.95837580020132
H         8.07447909163071    1.71235760909456    1.99166221692785
H         8.53328577055316    0.69397580070692    3.43841657941221
