30
 energy: -45.975357609240 gnorm: 0.120913445556 xtb: 6.4.1 (79825abcba525fcdf90b791dcacef51065a7a4e7)
C         1.17907477998336    0.23015874598954   -0.14311105045013
C         2.63869745572579   -0.01394591164939    0.02329287735529
C         3.22283750816869   -1.25106072738360   -0.19256267827163
N         2.61320795149889   -2.45146273470048   -0.20028968295296
C         4.62664092874676   -1.18506560858145   -0.13705905628962
C         5.09019595650508    0.10147811980457   -0.08082529344749
S         3.85006960177904    1.22438797946693    0.08314458210486
N         6.42982020652899    0.34183989300147    0.07563139329952
C         6.70128141532029    1.09685733204157    1.33480789617787
C         6.63330534035687    0.04182433195073    2.45820024424459
C         7.57870658175895   -0.89599662680303    1.71185547347633
C         6.97174735404661   -1.07171719352326    0.30976875632085
C         5.79827446397097   -2.06977429557312    0.05433624813562
C         8.76129580469204    0.03385782792177    1.56861507709251
O         9.89651811423435   -0.38533902775369    1.39781994210881
C         8.20447877999999    1.41379361867931    1.30535204861632
H         0.60827756546352   -0.52270042787188    0.40864793483493
H         0.96003202902169    0.07271248265547   -1.20389164479638
H         0.84205687675033    1.21287599740587    0.20418869079943
H         1.70460798853975   -2.52357173654504    0.24665963138883
H         3.16572983669691   -3.28141881698434   -0.00763596018468
H         6.02717094048136    1.95002802886428    1.44380539560151
H         5.61468923437666   -0.35342614626429    2.38961326043144
H         7.12030028005958    0.33033255937425    3.39648460109282
H         7.84452578022285   -1.82973066449930    2.20347618107766
H         7.75327781365140   -1.24106946501050   -0.44164458325879
H         5.60283027213216   -2.68501065190274    0.93883555592419
H         5.92671442075524   -2.74382840929034   -0.79954654398671
H         8.52602124713060    1.77854076175861    0.32816535651103
H         8.57943842598049    2.18372821044193    1.98482741391396
