30
 energy: -45.973481223972 gnorm: 0.126216319888 xtb: 6.4.1 (79825abcba525fcdf90b791dcacef51065a7a4e7)
C         1.00363442594204    0.10706997849010   -0.17089041313704
C         2.45257013661176   -0.13465760312977    0.07391313321792
C         3.37967501802942   -0.64713862826932   -0.81833459536843
N         2.99606511165807   -1.21148136093985   -1.97895235887278
C         4.70179169534952   -0.43246928865032   -0.38935369530436
C         4.76788257697255    0.18557894748586    0.83002674196698
S         3.26358676966515    0.74927560817206    1.32506844352181
N         6.09263341462485    0.39954937305947    1.10588453770354
C         6.73578401093391    0.03023918438622    2.40173765883752
C         7.13787021686858   -1.42082991662061    2.06640066472806
C         7.97765936779516   -1.05478578869035    0.84529950030991
C         6.97718945840979   -0.22564506973700    0.02267564319697
C         5.95901789084460   -1.13165996407296   -0.73947003241269
C         8.90528673070438    0.01036868998750    1.38253110864019
O        10.06229845931588    0.15560478714481    1.01666636311365
C         8.10202348452684    0.73229539843115    2.43949156051301
H         0.60283196216872    0.78739232476145    0.58644918187820
H         0.42716853949376   -0.82189089260521   -0.11851383948254
H         0.84831196630304    0.45032031942927   -1.19947463555893
H         2.04828473464109   -1.56271798855731   -1.88481166948963
H         3.63989043307179   -1.93088011498941   -2.29387674406122
H         6.02815668354470    0.19297950946149    3.21842902406415
H         6.27300086982867   -2.03668423140724    1.79951049264434
H         7.80736792672031   -1.98057202391968    2.72915265059150
H         8.44087769978251   -1.84522117501135    0.25805960347627
H         7.46740831161273    0.54649593204366   -0.58360466527728
H         5.85947768558008   -2.14814618198441   -0.34462735041047
H         6.11446862679517   -1.26877254265666   -1.81510789153113
H         7.91332470780681    1.80380501935793    2.35240669128637
H         8.60003665259894    0.49939755295082    3.38438428604713
