30
 energy: -45.980520549158 gnorm: 0.118393719253 xtb: 6.4.1 (79825abcba525fcdf90b791dcacef51065a7a4e7)
C         1.21678801354999    0.21187583741701   -0.55182416464191
C         2.59302245674048   -0.07615504770515   -0.06111788663827
C         3.17062437912104   -1.32822636775526    0.06911151917889
N         2.47335497668498   -2.46624201493586   -0.10811332660679
C         4.55940169741347   -1.21249759899863    0.25885993909834
C         4.95752520014138    0.09478308584323    0.18299717465736
S         3.73300365836562    1.22884043427772   -0.01746973673325
N         6.31075488854717    0.29262438094094    0.26345738962053
C         6.81516709612613    1.09168555287851    1.41945806507121
C         6.82377031424606    0.03420842594067    2.54257598296998
C         7.72288433821480   -0.88593783211034    1.72084183517634
C         6.94254369364383   -1.09495024378722    0.41221405364018
C         5.74563424825257   -2.09501515864067    0.33684622603198
C         8.84719118223540   -0.00248700013395    1.23184987783253
O        10.04185276931777   -0.23861328283664    1.12862805704364
C         8.28943150511540    1.39686819516070    1.11233173584718
H         1.23180124391446    1.19560116548498   -1.03047168513754
H         0.56348090413924    0.40545566658621    0.30476277742853
H         0.81554794798363   -0.52597619499034   -1.25503974752932
H         1.47200338085288   -2.34702129137331    0.00850008575247
H         2.76223786280240   -3.34518112352267    0.31049831964370
H         6.16202407955563    1.95674204928554    1.55833601114743
H         5.85200142400392   -0.41210008503937    2.77705375239318
H         7.21925076546154    0.52915492349368    3.43666869643010
H         7.94937106263575   -1.81259989007718    2.24449363971993
H         7.66048794255680   -1.33020832221048   -0.38358852815526
H         5.82935010483822   -2.74001990820451    1.21776266218728
H         5.85163320084096   -2.63713453772004   -0.60910958175577
H         8.57688592628440    1.86266860111325    0.16802044919559
H         8.76026350491217    2.03916522218465    1.86123262364856
