30
 energy: -45.974473845664 gnorm: 0.126479728442 xtb: 6.4.1 (79825abcba525fcdf90b791dcacef51065a7a4e7)
C         1.13463475333139    0.13815643432167   -0.49509463199869
C         2.58064974873312   -0.04029592110260   -0.18692084102690
C         3.15638229779768   -1.29036420051071   -0.03159020283022
N         2.52084414795693   -2.47676460543943    0.00331283859843
C         4.53379552014378   -1.10039566018493    0.17993950381222
C         4.96382211133216    0.19832437345052    0.22048179747522
S         3.71736268122602    1.26739409547657   -0.13889943870461
N         6.31471848542827    0.40348073727975    0.31965572695810
C         6.81597444232334    1.05964036335801    1.56362719106822
C         6.83667213348547   -0.12260347223976    2.55438289569896
C         7.73703784218642   -0.95644292016531    1.64643160924981
C         6.93324576248080   -0.99787825591036    0.33596383614502
C         5.71712042068531   -1.97737474954485    0.33065983357569
C         8.90947436771012   -0.03305109978340    1.40893523430394
O        10.04269338488752   -0.29733877852286    1.03531329106600
C         8.31181662327119    1.35441494776494    1.37262276810225
H         0.63894441572307   -0.45729742840978    0.27741436703255
H         0.84549920741890   -0.13358650589338   -1.51518332142992
H         0.87059035946264    1.14951386311334   -0.16742395293490
H         1.53642410971256   -2.34631163401736   -0.20743937388658
H         2.96032881605332   -3.31939981397029   -0.35451690008332
H         6.19221357966870    1.94911049345752    1.68182574709083
H         5.87827506013800   -0.45284856148747    2.96780655129310
H         7.49997597958736    0.04401758232610    3.41056280324827
H         8.03469389149909   -1.94004082246406    2.00440655409655
H         7.43557361926926   -1.11052212775582   -0.63309247655842
H         5.81159708402458   -2.55208502283266    1.25793298625082
H         5.86060196017157   -2.64420401901137   -0.52649439164291
H         8.54331181427660    1.83637335164874    0.42107143402371
H         8.70037487083076    2.09613316439286    2.07544376900108
