30
 energy: -45.976063602991 gnorm: 0.120359173735 xtb: 6.4.1 (79825abcba525fcdf90b791dcacef51065a7a4e7)
C         1.11118571623291    0.19352739042424   -0.42611552461935
C         2.56017132259162   -0.06270842657726   -0.19685669406751
C         3.20702162447910   -1.28710532702015   -0.17033909429196
N         2.54926624057742   -2.44529428213287   -0.36688187369814
C         4.58370529942725   -1.15419631415944    0.08495933389392
C         4.90928478823374    0.14580598619025    0.36286626904241
S         3.63749306661691    1.23385556614926    0.20659737238350
N         6.25844867115401    0.37903886392778    0.31591057526989
C         6.82990335448278    1.11897869117803    1.48003968401113
C         6.95989023193096    0.05225757174267    2.58680759554506
C         7.74627207125132   -0.91929538040828    1.71044543490164
C         6.88351314126793   -1.01391775713403    0.44087148675078
C         5.71478583853808   -2.04929062646310    0.41892001094306
C         8.90855819481206   -0.06219868796366    1.26531555274382
O        10.06721558282953   -0.40084780132548    1.07437967776707
C         8.31694588591576    1.32369215408810    1.15183931699213
H         0.50313580175504   -0.01470307804077    0.45929948793967
H         0.71330758153713   -0.52539935627558   -1.14920738864705
H         0.92007209779763    1.24456387479223   -0.66845673554942
H         1.98458413575587   -2.45285487176506   -1.21044232872434
H         3.16672175151131   -3.24298198519686   -0.24998021478168
H         6.17972124657919    1.97371091869965    1.68228129535142
H         5.91655082555256   -0.09091742031587    2.88588900808339
H         7.45423377894897    0.47691126174861    3.46775725551231
H         8.05920170315033   -1.86706374011070    2.14405839468453
H         7.51937378031964   -1.24160169986816   -0.42395989737450
H         5.64050585197261   -2.60623761804655    1.35878477058528
H         5.83688551375809   -2.66418362604382   -0.47938942797942
H         8.37514421286712    1.57256248634504    0.09070766665054
H         8.87654121338977    2.05490648568528    1.74112655919668
