30
 energy: -45.970599498680 gnorm: 0.138949617895 xtb: 6.4.1 (79825abcba525fcdf90b791dcacef51065a7a4e7)
C         1.09211737339167    0.24472354497460   -0.35559011423835
C         2.52873360444339   -0.13020122121099   -0.24008717662289
C         3.22120862164056   -1.32911259947594   -0.20326119306689
N         2.67381004699243   -2.55524484529055   -0.30138057258296
C         4.56083733561174   -1.06054414563673    0.13045419000861
C         4.91719104173535    0.25836441435165    0.21250621424406
S         3.53618037704357    1.21622344314055    0.18023072392362
N         6.27597478512358    0.40972703032691    0.29992326910150
C         6.89694353911078    1.17021003424939    1.42479278072818
C         6.89159513719157    0.11763601712042    2.55252727224201
C         7.72539647076338   -0.88831823305406    1.76312651244786
C         6.91737075236316   -0.97247669568676    0.45731788002057
C         5.73667134318071   -1.95838923002975    0.18837967997564
C         8.95636228942840   -0.10743021228414    1.36487854474058
O        10.07577401632676   -0.56851663881382    1.19771583955395
C         8.41400390252470    1.29509443881606    1.21538808911173
H         0.68558840223387    0.30687172681280    0.65827189381656
H         0.60576314273614   -0.63399116380470   -0.79072749502545
H         0.90006782361559    1.12756368555254   -0.97497822330660
H         1.68815918227893   -2.72064086472262   -0.47929580116788
H         3.20045995064116   -3.36820301386862   -0.60627709601867
H         6.22515147987865    2.02117642255417    1.56174994540449
H         5.87861270278720   -0.15437272496297    2.86618906546087
H         7.50037661187738    0.48357008167861    3.38694681901465
H         7.94411196035391   -1.89973365808653    2.09989407938181
H         7.55172922633658   -0.99788651311179   -0.43768811200154
H         5.53352354487918   -2.66632684603732    0.99869352994278
H         5.89778267014895   -2.64009544510925   -0.65380876567736
H         8.62397472516884    1.74861993704292    0.24505271045088
H         8.80918205998209    2.03673353905988    1.91459224719332
