30
 energy: -45.976255388478 gnorm: 0.112410449634 xtb: 6.4.1 (79825abcba525fcdf90b791dcacef51065a7a4e7)
C         1.04529657509357    0.19595787406300    0.00836169706359
C         2.53058198012364    0.09827431563659   -0.03812347191078
C         3.31543124341437   -0.74265457674131   -0.80956141045399
N         2.75393528632169   -1.30424007814855   -1.89676741029490
C         4.68052854365644   -0.67907943929994   -0.47704432423835
C         4.84759125450300    0.06783593553536    0.65761321808442
S         3.44578791330218    0.75763639684211    1.27797502367230
N         6.13254680658748    0.36155297760848    1.03106353821432
C         6.65082241028435   -0.09382014296527    2.35518351698926
C         7.15692565216102   -1.52092686886627    2.06030786462241
C         8.00256431946081   -1.06288750121856    0.87480486696430
C         7.03185940885454   -0.28342324610802   -0.02813025610079
C         6.03198640124860   -1.00397171540441   -0.98701827931061
C         8.80320922067415    0.06002187341352    1.49262900616022
O         9.85708837333790    0.53123535710690    1.09147659245194
C         8.00097003702563    0.56993436725504    2.66735320760396
H         0.81647784766981    0.44295382123924   -1.03263751330988
H         0.72372442405102    0.95250602623849    0.73103089092654
H         0.51783731154043   -0.73214678603859    0.25400337197834
H         1.82153097323926   -1.67041275665652   -1.73227713108213
H         3.31850870072109   -1.89204390194477   -2.50254501799449
H         5.90107986235986    0.04127720735405    3.13866322057897
H         6.27664783688277   -2.09993626485943    1.76304539698190
H         7.74984711159711   -2.09409578073879    2.78190342024518
H         8.60517694296808   -1.85105131017377    0.42774127335314
H         7.49382447531269    0.51587183128337   -0.62126406426374
H         6.21629794349650   -2.08303745642339   -1.01346858498434
H         6.13638664246602   -0.57781351047805   -1.99073704658111
H         8.18188167411725    1.63673105187345    2.81066993276525
H         8.38759195182301    0.22550118173910    3.63014605131714
