30
 energy: -45.976368240534 gnorm: 0.121756829668 xtb: 6.4.1 (79825abcba525fcdf90b791dcacef51065a7a4e7)
C         1.14072901356263    0.12721325538454   -0.23553432667863
C         2.60468524144055   -0.04914989881092   -0.02695845577559
C         3.21185958673216   -1.29237239849352   -0.09023091054049
N         2.56445392121412   -2.47044411315948   -0.16563527977842
C         4.60134124784174   -1.14403646569240    0.06925957732271
C         5.00411019062708    0.16397724790709    0.08010285266336
S         3.73744143058094    1.26280501797607   -0.03759949503862
N         6.35368773248980    0.37411386970484    0.18653911281573
C         6.77735416264381    1.10451406936090    1.41791651138994
C         6.78803289659453    0.04921922881577    2.54306739619705
C         7.64985039452125   -0.92531003763843    1.74439006233509
C         6.99531034904145   -1.00666536789591    0.35511578414044
C         5.78929430162043   -1.99705790431669    0.29988640559968
C         8.85245959783997   -0.08072831477663    1.39214411878241
O        10.03688362775331   -0.35048267454469    1.25798385341852
C         8.28049667667227    1.29960899326355    1.16608496724765
H         0.56383879374199   -0.54893306096095    0.40248464203835
H         0.70198820518197   -0.09614339366259   -1.21310418997336
H         0.95836650397834    1.19461029277155   -0.07018970606200
H         1.55328772303955   -2.38411393800931   -0.14099168507557
H         2.91444122038637   -3.15849918058738   -0.82541713780008
H         6.22961321687204    2.04549982979330    1.51135783961830
H         5.84528552520434   -0.42221441433018    2.83884366632999
H         7.13075730919993    0.38989885221951    3.52655912232661
H         7.75730562325965   -1.83394704061298    2.33349293118540
H         7.75854318509556   -1.12108937240611   -0.42493219163171
H         5.79464569330683   -2.69499483312077    1.14363319632340
H         5.81089370450771   -2.67835643505393   -0.55762590681567
H         8.45575333515075    1.72192382433644    0.17499508482607
H         8.71193563790282    1.98397339776380    1.90133089005801
