30
 energy: -45.974836043738 gnorm: 0.112464831929 xtb: 6.4.1 (79825abcba525fcdf90b791dcacef51065a7a4e7)
C         1.12982626883863    0.18019591045338   -0.42749939663515
C         2.58055170677181   -0.10983400481773   -0.25704750844408
C         3.19945793010965   -1.33766573625506   -0.09076367723062
N         2.62728414295276   -2.55451866084226   -0.15828222185686
C         4.57034039915705   -1.10267109892586    0.11794301066234
C         4.95549532599282    0.21037016673680    0.14654943507928
S         3.62015671250846    1.23038627336368    0.10003286760611
N         6.28799100787172    0.45464181770710    0.35058871077583
C         6.86262344750003    1.18333277750333    1.52023606826222
C         6.89641372778897    0.05225810210653    2.56868922100926
C         7.65742364239508   -0.97015102574201    1.72853111808305
C         6.90236759101636   -0.94811268489476    0.38893080710834
C         5.74658448165788   -1.99035318620545    0.26124992345366
C         8.83470157321142   -0.14932106241304    1.25533009574532
O        10.03373581200733   -0.36678476795007    1.16230810229188
C         8.34604854483756    1.27517837767245    1.13045034597514
H         0.54762735616883   -0.06774410924273    0.46503323736175
H         0.75174769385806   -0.44714082245995   -1.24084415554826
H         0.97059998469233    1.24649441108988   -0.62137003399670
H         1.65318370787487   -2.58405073732720   -0.44248889308783
H         3.26964556653929   -3.34060548534016   -0.18401617855610
H         6.39396116299467    2.12145783004724    1.82761635727853
H         5.85393911248833   -0.14182843608845    2.84087108958733
H         7.54386539475852    0.36945972037059    3.39389711353076
H         7.91335273700876   -1.87770336836093    2.27172449116984
H         7.47692967234276   -1.05052958804363   -0.54030609144041
H         5.55535524144533   -2.58006783792537    1.16386898979043
H         5.94219151325650   -2.62347307805701   -0.61102217429962
H         8.47554307050664    1.73950333070086    0.15118666143766
H         8.84262300977613    1.83918221079000    1.92442405559815
