30
 energy: -45.980754359439 gnorm: 0.125095641504 xtb: 6.4.1 (79825abcba525fcdf90b791dcacef51065a7a4e7)
C         1.07660016959489    0.15147335843781   -0.14981356111430
C         2.54546875594770   -0.08857424542766   -0.09904019538631
C         3.18862897114514   -1.31519805289112   -0.10133551615155
N         2.69296865633440   -2.56376766991450   -0.19115561267562
C         4.57528673616739   -1.08215279918981   -0.07018754379349
C         4.98688810803919    0.21371125587031    0.08653172774012
S         3.65924427987600    1.23789839104997   -0.03233217869486
N         6.32792437142991    0.48744786543301    0.14599285900334
C         6.88978469078041    1.18107676036624    1.34284704194058
C         6.70127476226991    0.04582322855454    2.37016839945530
C         7.60060936636085   -0.89749220918580    1.57538828661578
C         6.94730998639622   -0.91313171462457    0.18323897601709
C         5.77135364697084   -1.93739573994184    0.10316242408500
C         8.90071128174780   -0.12754851992165    1.55117847081581
O        10.04714947339461   -0.52802739125008    1.68873872263749
C         8.42186056253402    1.27993092755406    1.28047752004027
H         0.60631754047821   -0.83473468282603   -0.09260936515332
H         0.81746953880666    0.72874683642865   -1.04291555483033
H         0.80272417894171    0.79763986061938    0.69125252542044
H         1.70869992198414   -2.66453555271424    0.03595268506400
H         3.12830903897988   -3.26217329945773    0.40376565445071
H         6.30083344382170    2.09980374133791    1.40014267624699
H         5.65205593140366   -0.25525342766976    2.45382591009392
H         7.05650611508571    0.25228487481473    3.38602413594984
H         7.65020189831284   -1.93163995800325    1.91048384248036
H         7.59336411123317   -0.98760043585481   -0.70059388880371
H         5.75978020688749   -2.53519766921630    1.02052393445784
H         5.99236529325569   -2.61762119057673   -0.72654160826896
H         8.82588726151567    1.59248174636217    0.31590596669240
H         8.78760183517607    2.07052161624924    1.94099282602851
