30
 energy: -45.974311365946 gnorm: 0.117917163101 xtb: 6.4.1 (79825abcba525fcdf90b791dcacef51065a7a4e7)
C         1.06156476582379    0.18060521859273   -0.33078104497861
C         2.52935701763240   -0.06913574778730   -0.29930016999326
C         3.15076405948015   -1.23780503728699    0.10853760260387
N         2.48789621771708   -2.39870964742013    0.26847376537811
C         4.55425597608876   -1.19619457361346    0.18964896810896
C         4.99026508213393    0.09589672345683    0.07287395080974
S         3.73071562763264    1.17609380677370   -0.19626446798309
N         6.33923865636897    0.33109935072670    0.11524892397857
C         6.90815422249187    1.19257116639254    1.19389130528821
C         6.77057328368589    0.24614371619856    2.40429302125152
C         7.64959816372085   -0.83783378334794    1.78572191458117
C         6.90425470999034   -1.05102253946176    0.45751331925750
C         5.72694090040296   -2.07523220458966    0.39981479172378
C         8.88466498303022   -0.04877706882281    1.41739618596590
O        10.01096561052767   -0.52063360651093    1.36815210319200
C         8.42884045030283    1.33875577877334    1.02938587368384
H         0.51392096716796   -0.76066511138816   -0.43633106153628
H         0.84772069995114    0.80027884767227   -1.20730818473834
H         0.78935085724762    0.57000474345351    0.65623413386243
H         1.80347350710994   -2.60870514520930   -0.45123779434803
H         3.14392959108172   -3.13631572722220    0.50676027809932
H         6.27577509390462    2.08370896807824    1.20714585978697
H         5.75126132835877   -0.13565611214709    2.52150187706660
H         7.15664540426679    0.61395223094744    3.36160374264032
H         7.91066763751999   -1.69866585551654    2.39811140949963
H         7.67559852696485   -1.21438931059070   -0.30565905377460
H         5.57333041394476   -2.54586530892809    1.37652433435558
H         5.87488004655178   -2.80725675833858   -0.40156879533212
H         8.96806633096816    1.51886519196717    0.09765634229257
H         8.78753101547515    2.12637573879349    1.69727558129353
