30
 energy: -45.971371073785 gnorm: 0.112956036447 xtb: 6.4.1 (79825abcba525fcdf90b791dcacef51065a7a4e7)
C         1.18581339373402    0.30879250323306   -0.31725678273008
C         2.58555051688908   -0.05601773774471    0.03689737068651
C         3.20675387397497   -1.29375821525833    0.01763140598973
N         2.61711664491095   -2.49705841098705   -0.11301874052985
C         4.60292989289503   -1.12975281038424    0.06116067627675
C         5.05034730042459    0.16243672742960    0.00367912441560
S         3.74901220377355    1.22064240554694   -0.10791730082460
N         6.38919784310490    0.36914920155160    0.20762713648745
C         6.71089139502381    1.02974575304941    1.50739382531278
C         6.72639553876278   -0.15489819027539    2.49537363029357
C         7.70487256313282   -0.93316321267825    1.61946927488816
C         6.98543877195914   -1.04078407832548    0.26449431389664
C         5.76744449651099   -2.01787015097407    0.27846249670343
C         8.84448175158414    0.03105788502699    1.38445234342339
O         9.96309862604262   -0.20845702981769    0.95438773538773
C         8.20368774374512    1.38385916455370    1.59154445870373
H         0.74602970745677    0.63532160090635    0.62985114413917
H         0.64320970676052   -0.55715088149914   -0.70936367285873
H         1.09267653810471    1.08403568317446   -1.08553727061077
H         1.63213856658824   -2.61419972998536    0.10288260460310
H         3.01327942255474   -3.22095507957421   -0.70483937036423
H         5.99400392103961    1.84929184474480    1.60024950877202
H         5.78676586276198   -0.67076002347168    2.71783380288163
H         7.30709822371687    0.14534137993240    3.37481617748774
H         8.07887634399273   -1.86761108003690    2.03315801309103
H         7.62258102534339   -1.28085544419346   -0.59603316668349
H         5.59145078337492   -2.49312293973417    1.24913969684778
H         5.89830504583985   -2.71684384831407   -0.55476788870202
H         8.64222865894468    2.01463877314227    0.81622335132777
H         8.39470842235249    1.84955170660515    2.56196825253271
