30
 energy: -45.976516120131 gnorm: 0.118222819171 xtb: 6.4.1 (79825abcba525fcdf90b791dcacef51065a7a4e7)
C         1.17284907202657    0.34899314780550   -0.28940994909695
C         2.58519844420183   -0.06289997743587   -0.05834934877500
C         3.16442338995661   -1.30193065879426    0.15975087005531
N         2.44685601697499   -2.40406554577607    0.44796715544436
C         4.56596365868533   -1.26046450269317    0.26959380492744
C         5.06638800170630   -0.04950404046132   -0.12586856908583
S         3.84667285398690    1.06773589648708   -0.42552824884176
N         6.41808086992346    0.12523247635435    0.01283666243081
C         6.83549472626709    1.19361929100790    0.96865216339501
C         6.64573072449323    0.37736411387720    2.26381348618185
C         7.62546409199560   -0.71771902715416    1.85000481811896
C         6.95348612959964   -1.20374443094670    0.55487961156355
C         5.69235196273385   -2.10986567690868    0.71885295760295
C         8.88539363027407   -0.04988689658098    1.34976268722893
O        10.04153998768178   -0.43861839098838    1.42618322602962
C         8.36699253938627    1.29570653596061    0.89786222270860
H         0.63177864643177   -0.16330908785588   -1.09055512286268
H         1.14302457527078    1.42634736106622   -0.48031022979562
H         0.55749669631410    0.27528928733362    0.61382898175669
H         1.43188939217704   -2.38789057080073    0.43804685968326
H         2.95980840023785   -3.27486725231658    0.54699859530426
H         6.27193702551633    2.11603190552227    0.80814263085481
H         5.65167218300113   -0.07668355958498    2.32857622160883
H         6.94201033997568    1.03980450670126    3.08489187269497
H         7.84576969874079   -1.45668664819662    2.61786047619847
H         7.68113922670970   -1.53362367300177   -0.19731232542554
H         5.67126088580802   -2.35344786302862    1.78622173965892
H         5.86952766347306   -3.01912908599950    0.13420741052761
H         8.55302590801672    1.58372359632446   -0.13836247582652
H         8.67610185328374    2.14543230415156    1.51227115276155
