30
 energy: -45.976092153545 gnorm: 0.130759704905 xtb: 6.4.1 (79825abcba525fcdf90b791dcacef51065a7a4e7)
C         1.16348538313549    0.10379944506834   -0.26348444380822
C         2.63550864637317   -0.03053225708492   -0.08216099522954
C         3.24330552512367   -1.27452469199861   -0.04566380970711
N         2.60428591468503   -2.44063466089828   -0.25664805919775
C         4.63316325441110   -1.11173299012058    0.09538369201805
C         5.00058198100340    0.20666538717115    0.10371845612290
S         3.73299798537418    1.30737882697703    0.01777198079750
N         6.35824015536159    0.37544389296430    0.17529854700159
C         6.76800804478327    1.11372572311107    1.40667915444052
C         6.69126273001354    0.00775474550404    2.47936927632730
C         7.61483299992751   -0.96420485870476    1.74955104040873
C         6.98451314562816   -1.01191078360591    0.34757193669161
C         5.80693822537790   -2.01355701808314    0.12751627898300
C         8.78850497277258   -0.05862746332457    1.45614336143237
O         9.93645464342860   -0.44771431296744    1.29977952387242
C         8.27613610749418    1.34386927267741    1.22364291584030
H         0.58472591766572   -0.75286878967093    0.09456777176380
H         0.95290722093935    0.37059603915363   -1.30391749534939
H         0.94857539931853    0.99485443993470    0.33632057003554
H         1.63227391144387   -2.49015131102726    0.03189666051360
H         3.11236757942208   -3.27129493611752    0.03158710928674
H         6.12666959504102    1.99667209614326    1.34926559341840
H         5.73160391048041   -0.50694588188650    2.59181526633396
H         7.01728363808814    0.49990565223354    3.40255747750336
H         8.02027407053344   -1.84259852198624    2.24780010461110
H         7.73696448436494   -1.23104964136435   -0.42046920836335
H         5.72219432618099   -2.82648152921480    0.85623120868456
H         5.88845233987187   -2.61225816416681   -0.78619810693578
H         8.55694129504633    1.81136086278377    0.27816741263557
H         8.70541024133717    1.99573211906138    1.98907046290303
