30
 energy: -45.972334149331 gnorm: 0.119454610118 xtb: 6.4.1 (79825abcba525fcdf90b791dcacef51065a7a4e7)
C         1.11613515912563    0.16855824498697   -0.50618893759176
C         2.52747912478938   -0.01268481947084   -0.06683159929233
C         3.23573064586920   -1.19407812870041   -0.21159320864715
N         2.69026730202191   -2.30308046594939   -0.74568724457949
C         4.59929334063863   -1.10021157092526    0.12004802486468
C         4.88118644751248    0.20569376730888    0.41734887541226
S         3.58432430179612    1.27519913140191    0.41161247297964
N         6.20925934592958    0.54071916278082    0.44608860856910
C         6.79171450206648    0.95803314635041    1.75599815601219
C         6.94461828142930   -0.36903946144725    2.52750607876659
C         7.76249052777586   -1.08218374078880    1.45380574927714
C         6.92970934780364   -0.78762808721223    0.19490271468213
C         5.84356614355418   -1.89811026529291    0.03513841254835
C         8.90116356421796   -0.09514723422093    1.34046097863202
O        10.03870489071974   -0.31710479609546    0.95269655940064
C         8.28545206243504    1.26581160246959    1.56907812308185
H         0.83039346502833    1.06825253097537   -1.05931302604098
H         0.60822960124813    0.23135898220425    0.46134014624734
H         0.82378551344260   -0.71495467483826   -1.08400203403024
H         1.68769506103206   -2.34336015092445   -0.59159722558595
H         3.19016634973300   -3.18505039796199   -0.68692526506868
H         6.29705416041580    1.79816774301784    2.24964847064974
H         5.96777690715195   -0.84831874399980    2.64824623511589
H         7.31778495690168   -0.24429678754003    3.55023013767757
H         8.01014751594929   -2.10294332546710    1.73828053726502
H         7.44745996566513   -0.71933555663403   -0.77016851740346
H         5.95189337872084   -2.63900659518968    0.83413220303405
H         5.92725397627042   -2.43443603701829   -0.91634075623069
H         8.55442466297719    1.90227926930069    0.72416006928142
H         8.48852950767112    1.79805446541497    2.50211502949318
