30
 energy: -45.972692923094 gnorm: 0.123697702841 xtb: 6.4.1 (79825abcba525fcdf90b791dcacef51065a7a4e7)
C         1.12166092358953    0.24766898576832   -0.32407337209233
C         2.57893721483254   -0.04620528933515   -0.23598576712676
C         3.20955743498680   -1.27240005494111   -0.10548358758702
N         2.54075412295150   -2.43970338330831   -0.05277731314376
C         4.58110673836583   -1.09886397475081    0.15304647371021
C         4.98403244971419    0.20903745010412    0.13616428625935
S         3.69565227825924    1.26898337013564   -0.06954725669347
N         6.32305184212006    0.44534528942150    0.30358976387884
C         6.76977864508555    1.03406880521235    1.60093620037623
C         6.84078456753911   -0.17047790238337    2.56205593052540
C         7.78580675203560   -0.97135835043389    1.66995405808494
C         6.94936172713865   -0.95058079553599    0.37958496622751
C         5.77009003896497   -1.97030513055992    0.29079911073926
C         8.89514804372724    0.00661908331254    1.35917049666062
O        10.03927404293384   -0.36348829624745    1.14094378464369
C         8.22818517469526    1.35748219966281    1.24125197472900
H         0.53704816059807    0.30127806916648    0.59918085254409
H         0.65092166523502   -0.64977889568275   -0.73761462620413
H         0.83223955993803    1.00283237125140   -1.06292038624105
H         1.54044230434129   -2.43684837352125   -0.22565127065585
H         3.10052156136572   -3.16860822943131   -0.48472768197802
H         6.08516280966137    1.87773260873831    1.71814613126535
H         5.90503290874181   -0.73395674070541    2.63531109098598
H         7.25259857869522   -0.04863873212487    3.57019433371091
H         8.24903864961470   -1.90348298392645    1.98739680130448
H         7.67217248614839   -1.18367977674300   -0.41243872526306
H         5.75194278435975   -2.55497624971510    1.21647918119831
H         5.87850639153746   -2.68217953760770   -0.53469608496113
H         8.39237858491176    1.85823827768854    0.28542367332794
H         8.79751501232433    1.98834835450231    1.92896718674322
