30
 energy: -45.975752351122 gnorm: 0.128544210632 xtb: 6.4.1 (79825abcba525fcdf90b791dcacef51065a7a4e7)
C         1.07750210605401    0.13890600125830   -0.14397380468084
C         2.54554342402675   -0.09771370108271   -0.06247837298548
C         3.23299612292510   -1.29820518242678   -0.12952514456941
N         2.60619131584722   -2.47377192666905   -0.32402822375363
C         4.61354303341053   -1.08795184494648    0.03775849934993
C         4.96340514077175    0.23274590065342    0.11896346018069
S         3.62529871995315    1.24975081992919    0.08899236349018
N         6.32231079254267    0.39865456257174    0.17088040671852
C         6.84985701990219    1.17414175068763    1.33259577411484
C         6.78282581840026    0.13080406034371    2.46691452523945
C         7.64675712759860   -0.91356153558427    1.76460023034337
C         6.98095711363392   -0.96858997970898    0.37939028362411
C         5.79968282466334   -1.96573645034267    0.15872687810683
C         8.90345549598655   -0.09875022256772    1.56346314951588
O        10.07072393237948   -0.45448252988439    1.49589393628957
C         8.37066150562100    1.24578990731518    1.12537889709206
H         0.63212425449699   -0.11962270945590    0.82134782279977
H         0.49236065600859   -0.56888569588866   -0.73951131356914
H         0.84287471822901    1.19193400972840   -0.33374570099242
H         1.73043269664313   -2.62810372411698   -0.81366669832909
H         3.24454412270680   -3.24252685639195   -0.50498273938793
H         6.35054474464453    2.14275711266789    1.41430966610573
H         5.75820690507190   -0.25020161594365    2.52604695082504
H         7.16100219113633    0.43763296872388    3.44855460963797
H         7.61977708650829   -1.88101201015884    2.26211573416914
H         7.67544639076084   -1.16640459608965   -0.44683370531583
H         5.75414097776773   -2.73772267967525    0.93397937914408
H         5.91934298693916   -2.52098401260473   -0.77793911430733
H         8.80586908615868    1.30948003151909    0.12644857006473
H         8.71213020269324    2.14897245032858    1.63796177499187
