30
 energy: -45.974937064475 gnorm: 0.130245545551 xtb: 6.4.1 (79825abcba525fcdf90b791dcacef51065a7a4e7)
C         1.14194316524077    0.25031729796485   -0.38134212380685
C         2.59453312488173   -0.04223517914740   -0.23244227261687
C         3.18571239467517   -1.28594266341671   -0.08423612408113
N         2.54774242491755   -2.47097691248823   -0.04734376702376
C         4.57082214420084   -1.12844175528359    0.10221632411665
C         5.00259038740657    0.17002983437023    0.13028765966546
S         3.71586902531763    1.24881186872248    0.05089295117849
N         6.34559943434781    0.41637433814867    0.24203160257559
C         6.75717513774057    1.10022469322723    1.50386444475154
C         6.74404542544204   -0.08388639141201    2.49251721245578
C         7.72765401126560   -0.96330095901056    1.72475009894614
C         6.93625015586294   -0.98747227254638    0.40633435753293
C         5.75553276281277   -2.00032778496556    0.27056795699512
C         8.89632428247169   -0.08827880253520    1.33460857325549
O        10.06345015562436   -0.28384514383410    1.02932562838193
C         8.26908022171985    1.28617358507475    1.30265659571476
H         0.75382047284277   -0.07050081394020    0.58998731568669
H         0.67396659733678   -0.34402967930057   -1.17240098913214
H         1.00602618993635    1.32108929543734   -0.56817165695699
H         1.73593086061037   -2.63311881698429   -0.63487188030230
H         3.16892465907400   -3.27419739039097   -0.06121759654897
H         6.17193047587921    2.02301658765743    1.49164033818203
H         5.77183535348951   -0.52991565853393    2.72569387493859
H         7.25231909753730    0.28136018765061    3.39197894719715
H         7.99055220564144   -1.92701727836691    2.15642754135127
H         7.56858347865272   -1.14171220111179   -0.47710022921746
H         5.60451604782629   -2.46496879792169    1.25054546185008
H         5.93051122796891   -2.71342762610621   -0.54234824444700
H         8.43588196972816    1.75710034140285    0.33222935269871
H         8.61725130322848    1.88056964797236    2.15150935110995
