30
 energy: -45.982821458092 gnorm: 0.109926580284 xtb: 6.4.1 (79825abcba525fcdf90b791dcacef51065a7a4e7)
C         1.11933509458688    0.05848036882598    0.02021951068282
C         2.59224588713714   -0.12434728041725    0.14221755768647
C         3.35882322387232   -0.98069246984051   -0.63063323890846
N         2.80054447007494   -2.07054729032639   -1.19028864271966
C         4.71730222871834   -0.65917911191014   -0.45956602559987
C         4.91683417220234    0.38829970428035    0.39846392924848
S         3.50385726360994    1.08721053277532    0.98219842991266
N         6.22713398100175    0.66985552783049    0.68251734904020
C         6.67199270907287    0.55322534098576    2.10299828955477
C         6.79139085557419   -0.97145911882712    2.30500603100617
C         7.73595616026707   -1.13174394653835    1.11655017044595
C         7.00679662190865   -0.43160433338954   -0.04243872872686
C         5.99300183043832   -1.29875985140998   -0.85401977026333
C         8.83886525079613   -0.17720106939196    1.51164993008997
O        10.01932154497836   -0.35572076990544    1.25034488279545
C         8.14024010544121    1.00435188100989    2.14365541980634
H         0.63219932996552   -0.57713404722799   -0.72525847786299
H         0.87745770854233    1.11074480018238   -0.15938954745633
H         0.63390071874202   -0.19443882994024    0.96906971456317
H         1.92569665017337   -2.00912480240513   -1.70154773475980
H         3.51838024577941   -2.68542427363151   -1.56158511832115
H         5.95289320573230    1.12526793565901    2.69449537236905
H         5.83574976118779   -1.49704379586787    2.21004954989015
H         7.29214445805014   -1.19949531185874    3.25264727484835
H         8.05025611816390   -2.15098705045438    0.90075153836862
H         7.54142484736534    0.14033120962315   -0.81130441821943
H         6.05695862207911   -2.34339033465639   -0.53197953249597
H         6.14029812730108   -1.35936266351231   -1.93780604612463
H         8.28371189365764    1.82167361642510    1.43462446563587
H         8.44243997461228    1.26822933891106    3.16057464453208
