30
 energy: -45.977654111218 gnorm: 0.117184398400 xtb: 6.4.1 (79825abcba525fcdf90b791dcacef51065a7a4e7)
C         1.22350516555404    0.28946348752975   -0.02441019032584
C         2.65736149898124   -0.09575066652992   -0.14034883792341
C         3.26917551262590   -1.33758310250462   -0.18279998033367
N         2.61456635696022   -2.51286849885143   -0.12928387326716
C         4.65553583168122   -1.16745698575022   -0.01799033108802
C         5.02216959645809    0.15070957748896    0.01746200361527
S         3.74613719479672    1.24494376468195    0.00655739698622
N         6.37057509123020    0.37332560053119    0.11280528277380
C         6.74513829169948    1.17163023332120    1.31766216724485
C         6.65806208266232    0.12653517912371    2.44899757599848
C         7.54302130245488   -0.90082538571418    1.74778461123650
C         6.93345429522312   -1.03282837703398    0.34203653611722
C         5.81627801163427   -2.08403764283333    0.05001155581105
C         8.76180333300599   -0.04646652701046    1.48643104441354
O         9.87848040476068   -0.53602948882797    1.40284219141569
C         8.26821422180655    1.36141008286461    1.24595516850522
H         0.60940728325081   -0.52141366116923    0.37858659971383
H         0.69483695723932    0.43864087381544   -0.97113114097928
H         1.30986049354013    1.23815792877896    0.51637902615227
H         1.65463751785183   -2.57863648671775   -0.45290168426731
H         3.23058948479455   -3.26151517904621   -0.43138755746357
H         6.12470646320211    2.06197819277273    1.44631084954229
H         5.68958902135914   -0.31048743686253    2.71277219488336
H         7.08976112517149    0.50171364103804    3.38369306697583
H         7.68657621908917   -1.85659746542923    2.24788633546897
H         7.82794633476274   -1.22065098896620   -0.26516912320737
H         5.81308733064179   -2.72794009674244    0.93569360021566
H         6.04736211221772   -2.69944984217508   -0.82624728807081
H         8.63570896795123    1.79769298902253    0.31540226559620
H         8.52765132104123    2.01551723384689    2.08256559698786
