30
 energy: -45.976804852019 gnorm: 0.109204960473 xtb: 6.4.1 (79825abcba525fcdf90b791dcacef51065a7a4e7)
C         1.17396188658206    0.32341478752729   -0.28024973850202
C         2.61558847517742   -0.02582290062841   -0.14788089890772
C         3.23998637966990   -1.25906520216746   -0.06123821073388
N         2.59648000414451   -2.43904311257517    0.01765758343362
C         4.64520281059828   -1.20161510303355   -0.04834244702486
C         5.04484519786668    0.10283339981005    0.06092929375236
S         3.79816029308436    1.22982021683217    0.02346602151176
N         6.37889357619347    0.37502217081407    0.21282988609238
C         6.67197164560100    1.05572552139869    1.50898426452975
C         6.64205864642904   -0.18319316590088    2.42763079093088
C         7.69848078761826   -0.90509849860928    1.59507621600698
C         6.97785683076842   -1.03458868693818    0.24264959143104
C         5.82045868590232   -2.07907669048800    0.15389883625613
C         8.83721456284178    0.05782449989322    1.35068089847787
O        10.01483704024984   -0.25038825899758    1.24188352867009
C         8.16528400115281    1.40900351931229    1.43068078718578
H         0.91861500108305    0.48392381445398    0.77145325445724
H         0.59877978490082   -0.47842305859315   -0.75379608196771
H         0.98975324766506    1.17696145986161   -0.94165477662299
H         1.60374110606217   -2.49077824240389   -0.18803696531583
H         3.09946311015238   -3.31972391060297    0.06896367500033
H         5.98944210893136    1.90492407154807    1.59395999779446
H         5.66412732854265   -0.67527579946999    2.42432857017390
H         6.91468521202892    0.10610686169787    3.44878643571266
H         8.01217054852392   -1.90158083661482    1.89975916350790
H         7.64388145665000   -1.22529946090793   -0.60831024907152
H         5.65841775351043   -2.66626511396146    1.06384703180344
H         6.07244444241263   -2.72816664361681   -0.69176480835650
H         8.34467139077925    1.97332172503360    0.51378984856272
H         8.56578194663972    1.95538576039005    2.28867182676564
