30
 energy: -45.980785540491 gnorm: 0.125857756664 xtb: 6.4.1 (79825abcba525fcdf90b791dcacef51065a7a4e7)
C         1.06170331248619    0.18738674456570   -0.19842213476201
C         2.52097332032677   -0.06619538830352   -0.04349360321292
C         3.18535267031704   -1.28037914114311   -0.09472034863408
N         2.63609021958325   -2.48739290383515   -0.32731746592141
C         4.57371283053385   -1.11890678894477    0.06174944365084
C         4.96191980551030    0.17810185709465    0.26250846078459
S         3.66589902303485    1.23054144952873    0.06648017246412
N         6.31403095204779    0.39389100753159    0.30807277988036
C         6.88928103982996    1.18869204958017    1.43352674839344
C         6.77575166115561    0.05484722587406    2.47335016641485
C         7.67872173271654   -0.92597109604576    1.72973558696471
C         6.96264693396734   -0.99249571222349    0.37034758435587
C         5.76688902513950   -1.98338386313171    0.20692767481037
C         8.89304487325494   -0.07787388200087    1.43004438981790
O        10.04383270505923   -0.47677156201320    1.32907567543587
C         8.38964098246474    1.31432936285286    1.12684469339814
H         0.57629492668561    0.32345811953977    0.77261218755398
H         0.58314788775495   -0.69153894700985   -0.64170404834280
H         0.94920074918051    0.99560359518776   -0.92921626621332
H         1.72569684390066   -2.46917893247279   -0.77605953043792
H         3.21114659968273   -3.20988169971961   -0.74986105667842
H         6.37009652001742    2.14350463583163    1.54748281932221
H         5.72514339821118   -0.20418694864909    2.63957128720115
H         7.29301707661567    0.32296594695380    3.40142744959357
H         7.85921273727697   -1.88005665907574    2.22101326326193
H         7.64495622835713   -1.15424221972033   -0.47368094262308
H         5.65541944191572   -2.60702821876745    1.10006567237003
H         5.85156219827974   -2.79819636369465   -0.52030862606798
H         8.48285054829017    1.63406053742231    0.08741801455682
H         8.80038409335358    2.05876425560026    1.81400375085601
