30
 energy: -45.981238026598 gnorm: 0.121337491609 xtb: 6.4.1 (79825abcba525fcdf90b791dcacef51065a7a4e7)
C         1.04378705641989    0.00532499316837   -0.28385533446776
C         2.52396740871359   -0.05820769495284   -0.13284066740505
C         3.23191882080083   -1.24811428384243   -0.09829514196051
N         2.68636595039970   -2.47752538137605   -0.15823925587165
C         4.61772540066967   -1.04620910007936    0.03160663890290
C         4.98271807846411    0.26565754342306    0.16954334989819
S         3.62643368819334    1.25699492949347    0.11064586016273
N         6.34063263049524    0.42769449015900    0.25113826970166
C         6.86574551921130    1.20574112940114    1.41224458834220
C         6.79402372730427    0.08542243142597    2.47029361717587
C         7.63636592812617   -0.93292085148185    1.70625255251735
C         6.95172096128193   -0.97481500283976    0.32979676701126
C         5.75037480067595   -1.97037520948496    0.26631732604264
C         8.86095043431686   -0.10266906153108    1.39845531691060
O         9.96816176571738   -0.60037040506894    1.25702295146063
C         8.38095904891204    1.31365180245517    1.18115624059018
H         0.52174572268260   -0.25971586183536    0.64041224894468
H         0.79053861690095   -0.61164189770810   -1.15175026166818
H         0.74441962992430    1.04351764930099   -0.46404002304470
H         1.71868435634462   -2.43476341278396   -0.46201718482586
H         3.27258918107804   -3.12976138965172   -0.67024852743282
H         6.36731746233526    2.17654642934403    1.46979604913655
H         5.78439482991291   -0.29235932187013    2.66117662814019
H         7.23710156484631    0.40612732023183    3.41982455782935
H         7.90365725227886   -1.79419047012003    2.31533383754691
H         7.66404634331637   -1.12116932400564   -0.49194834083974
H         5.66059732774397   -2.45040719312464    1.24640024771733
H         6.02880409693863   -2.67771924542444   -0.52241782612086
H         8.64120773529506    1.46403333763223    0.13188035533745
H         8.80105478543383    2.08177080437895    1.83582681049616
