30
 energy: -45.975376042131 gnorm: 0.113706300392 xtb: 6.4.1 (79825abcba525fcdf90b791dcacef51065a7a4e7)
C         1.19459317715095    0.20444498950086   -0.24755153407238
C         2.64933715590433   -0.11256447088993   -0.21591848755462
C         3.24804811170966   -1.34740019461212   -0.02885645144245
N         2.62791772171918   -2.54149995295132   -0.07615288677392
C         4.63667711331452   -1.12507800785553   -0.00930167684404
C         4.95508436970276    0.19634325997862    0.15101963668690
S         3.68126031024299    1.27185778158585   -0.06430995576517
N         6.29182488239185    0.48464082528632    0.23381413337998
C         6.80182718087636    1.14202209606149    1.47357843117358
C         6.69653342539425   -0.06420013099098    2.42943768314492
C         7.58171649010619   -1.00080322426153    1.61117870263215
C         6.98316245897386   -0.88193391589219    0.19953868685444
C         5.86254878150046   -1.95475011214934    0.02151410074234
C         8.79243461379950   -0.10311918914010    1.50168266299487
O         9.95300461936100   -0.48365364209628    1.45812276130290
C         8.31994915208394    1.32037920081978    1.31733183160567
H         0.64899244516177   -0.37387758995460    0.50405155671205
H         0.73055637546033    0.02934461793367   -1.22327394844692
H         1.13639695815031    1.24280048512452    0.09648687518729
H         1.62223851710383   -2.60157482149249    0.04841694318591
H         3.17132594007155   -3.33155375254136    0.25813065937979
H         6.22478370261819    2.03813243436565    1.71485153865230
H         5.63956370672966   -0.28688506585967    2.60757336240541
H         7.22210382217796    0.11715571950020    3.37371752266443
H         7.73294973702109   -2.00638044044461    1.99867448899374
H         7.60160341835152   -0.80655645721074   -0.70375587924904
H         5.81257091727464   -2.57001102507096    0.92595284979288
H         5.96355876379610   -2.64124648747031   -0.82611866480856
H         8.61695621039912    1.73842747985955    0.35382453439967
H         8.76407568825605    2.09927126450213    1.94275933102723
