30
 energy: -45.982200520955 gnorm: 0.113151151523 xtb: 6.4.1 (79825abcba525fcdf90b791dcacef51065a7a4e7)
C         1.10386793022149    0.23296496406722   -0.17757479685786
C         2.55015400014499   -0.09943567400841   -0.05290680085805
C         3.20747973468034   -1.31850173600371   -0.06109726152136
N         2.55746738907281   -2.49641972453384   -0.11273092068622
C         4.59792891484880   -1.17571376844984    0.09498834275515
C         5.00348511911507    0.13100096519204    0.13049930344107
S         3.70862542134750    1.18981198325301   -0.03678378254854
N         6.33152823393478    0.46585878463077    0.16239487927164
C         6.81229127964722    1.15433965954849    1.39695106007035
C         6.73976078260542   -0.01641776107768    2.39884533236058
C         7.65336557028478   -0.95888057070976    1.61947872140052
C         6.95141461983654   -0.93216491799392    0.25138679846613
C         5.82500892817478   -2.00407245527528    0.10776645487829
C         8.83857527259162   -0.03595709507837    1.45469218305624
O        10.00643069032505   -0.39570513900462    1.43675506435992
C         8.33112703284527    1.38663538086996    1.40670951004277
H         0.61735818588417   -0.05766630505900    0.75831307222873
H         0.71960020225770   -0.40364709328275   -0.98074845019750
H         0.99675675155937    1.29653961319371   -0.41688114148246
H         1.57358191296682   -2.39041521446982   -0.33911488564853
H         2.98683753310840   -3.35891008384022   -0.43362755143107
H         6.14306618200890    2.00803757771758    1.52940201695153
H         5.73060562139884   -0.42508933465913    2.51329746836445
H         7.20919369167630    0.28859118155959    3.34085429729562
H         7.91315920018957   -1.94872403980644    1.98951546623470
H         7.63902781670534   -0.94498961279643   -0.60366622368759
H         5.77484937653360   -2.67068703848976    0.97503933314534
H         6.08196557779955   -2.56033292052500   -0.80025841669902
H         8.72566696023323    1.78074311446228    0.46844451147419
H         8.77325963412635    1.97581027655895    2.21446720171755
