30
 energy: -45.981457348121 gnorm: 0.117279937542 xtb: 6.4.1 (79825abcba525fcdf90b791dcacef51065a7a4e7)
C         1.10965598251780    0.17432506809803   -0.19717225626726
C         2.56565544202978   -0.11164058527384   -0.07042473488096
C         3.21856207171305   -1.33221719256679   -0.02382020204015
N         2.66876430012161   -2.55058194613418   -0.18501149754579
C         4.60706041782982   -1.13566942278846    0.08361061571711
C         4.96949749907277    0.18413008186635    0.08062471045409
S         3.65424404922535    1.23077429011356    0.06138073142223
N         6.31705376799179    0.41594588773500    0.16547259321466
C         6.83142355961041    1.16608350795828    1.34952718204601
C         6.81234465997562    0.11355501021026    2.47715544849918
C         7.63112798755240   -0.92693574394597    1.71735611482647
C         6.95604530624656   -0.96580161610581    0.33609683407658
C         5.79732102367129   -2.00589873666923    0.21795123827447
C         8.85757311118191   -0.08412148563635    1.45437156701211
O        10.03146379401731   -0.41556670680705    1.53020958219453
C         8.34197222146437    1.29073246213819    1.09728928911347
H         0.56955483758352   -0.28291605537019    0.63725310613762
H         0.66857413796262   -0.18628065950218   -1.13174961692108
H         0.93259331516346    1.25500174991731   -0.17037501892451
H         1.68084718689527   -2.46165815074942   -0.40095042603044
H         3.07194032902015   -3.17118408966010   -0.88037115884148
H         6.31393321958411    2.11378187335126    1.51768539970484
H         5.76872017783731   -0.07560542759074    2.74839732815442
H         7.37439725149377    0.29308500694824    3.40054294473514
H         7.95136807686612   -1.83259034295949    2.22867407187640
H         7.57993911198656   -1.22235077292678   -0.52936899746525
H         5.72849761633909   -2.76118505220938    1.00779879352858
H         5.81649724934241   -2.62354387077875   -0.68654218278473
H         8.40664059686515    1.52803526225855    0.03388473294305
H         8.76662266249680    2.12394894059745    1.66341920913185
