30
 energy: -45.977480743361 gnorm: 0.117371036044 xtb: 6.4.1 (79825abcba525fcdf90b791dcacef51065a7a4e7)
C         1.13411841485591    0.25016581665472   -0.30464015795211
C         2.55265609668366   -0.03216389092558    0.05006602251452
C         3.23457452441477   -1.20151971561953   -0.24295359552249
N         2.76744888383952   -2.34303405297261   -0.78277906189219
C         4.59977059093576   -1.05135722715720    0.06001665670005
C         4.91223364406279    0.25283561217342    0.33330798870389
S         3.61450473608407    1.31959969592722    0.27297450006609
N         6.24722370961267    0.54179692653857    0.43889445127589
C         6.71898472726004    0.87636285183194    1.81540277878746
C         6.87836707167096   -0.47199741709044    2.54769206730579
C         7.78620016210414   -1.07126191376906    1.47669098625600
C         6.94818620555686   -0.80187392813968    0.21562512654691
C         5.83309448956403   -1.86398529478684   -0.04301028412602
C         8.87990814694422   -0.03393249887151    1.36985037450561
O         9.95036572287152   -0.28510745318362    0.83631650040035
C         8.19754895529470    1.27553391913863    1.69118982480657
H         0.91705123750927   -0.39600013054097   -1.16044140692034
H         0.91741495698630    1.31661754538766   -0.42187857128220
H         0.51303595272173   -0.25823708405203    0.44082240285694
H         1.78747698432112   -2.55259783617023   -0.62074392782389
H         3.43299357637856   -3.06875015394468   -0.53456668992788
H         6.06347623338186    1.64607980249815    2.23019194997906
H         5.97455179761477   -1.08818896838299    2.59164442438627
H         7.36685310211663   -0.42851617989442    3.52762542398829
H         7.96084255127116   -2.13756753828906    1.60592863335394
H         7.63930747180419   -0.71334253801718   -0.63208098169434
H         5.90144103940829   -2.67511299410729    0.68941981056221
H         5.90122850911711   -2.33478213029174   -1.02975730647706
H         8.33026189688473    2.07293880350338    0.95780275514510
H         8.53393905162348    1.63253184078502    2.66816217341505
