30
 energy: -45.982936747911 gnorm: 0.106047949311 xtb: 6.4.1 (79825abcba525fcdf90b791dcacef51065a7a4e7)
C         1.07537752996559    0.08774917281150   -0.27056765666734
C         2.55370181630932   -0.04651164283236   -0.15095562967760
C         3.22978613535762   -1.25512595030951   -0.13027392609892
N         2.64390815469477   -2.45087280770515   -0.32929486294734
C         4.61070788643772   -1.08101760442162    0.07181877800338
C         4.94770771158438    0.24080254762276    0.18345609973160
S         3.64383811011888    1.28970986499551    0.02394567760712
N         6.29242472803432    0.48076615239889    0.28833338568838
C         6.84004781963132    1.12631121264088    1.51823115587270
C         6.79996555205642   -0.01099938222784    2.55969347967578
C         7.65756867159551   -0.93095832754956    1.69452609575821
C         6.89288984662217   -0.92668648148828    0.36022012508872
C         5.75572884001647   -1.99441334358239    0.28792525384742
C         8.89956743256620   -0.11744628740227    1.41292065175900
O        10.04597129885569   -0.48540276301862    1.20317584852517
C         8.35044371733063    1.28454197631988    1.28459503870728
H         0.67194626729887    0.13673160942107    0.74525137603898
H         0.64976925481709   -0.74574617875583   -0.83816576999089
H         0.90725017711411    1.08093420011562   -0.70097218644425
H         1.98880078820905   -2.63147175815330   -1.08344050828693
H         3.14106718435949   -3.27033731833943    0.00616572095235
H         6.32244718165346    2.07068677784546    1.70383826912728
H         5.78357538738524   -0.36845159369846    2.75381930842534
H         7.27993683429346    0.30852719747974    3.49152443880647
H         7.95526196180930   -1.93432303625707    1.99259988550894
H         7.48987527448439   -1.09681585018194   -0.54463149283274
H         5.65932533213803   -2.57571526557640    1.21088119869494
H         5.88601207049823   -2.63002310750941   -0.59467777045638
H         8.54180169043750    1.45764733124768    0.22405718943879
H         8.80619206360841    2.09652176590656    1.85736292441246
