30
 energy: -45.979679768991 gnorm: 0.124841646058 xtb: 6.4.1 (79825abcba525fcdf90b791dcacef51065a7a4e7)
C         1.12512614043543    0.09480307013145   -0.15902714147490
C         2.60292180544760   -0.02903570348271   -0.02279338324854
C         3.20887324952863   -1.27392960786294    0.01365254369800
N         2.59037052139724   -2.46922943334498    0.05087613470525
C         4.60330556287543   -1.09415964441774    0.05027701114173
C         5.02445233715344    0.20772696298894    0.01918124632890
S         3.73637598471645    1.27867670345594   -0.12100447746357
N         6.37859699507640    0.38277309205563    0.13097002437407
C         6.78849579641864    1.08572814629333    1.38281073387686
C         6.67392352506892   -0.03737477563227    2.43411410080553
C         7.63947092516372   -0.94589644686626    1.67739171719226
C         6.98396273664792   -1.01563352254105    0.28794213556997
C         5.77604000331133   -1.99370861340888    0.13729631901534
C         8.85979782059655   -0.07581671608478    1.48392874554468
O        10.02955362939099   -0.37205676286846    1.29017669190077
C         8.30587041025573    1.32165169297170    1.32958536501367
H         0.65606070610803   -0.28494975073105    0.75355698448525
H         0.72481860185557   -0.42237945697526   -1.03669486450515
H         0.93347183994675    1.17326363569989   -0.17010882265518
H         1.61925701615083   -2.40623673989467   -0.23806636593487
H         3.06449309979283   -3.17132113843400   -0.50903278893326
H         6.30273605424394    2.02631104602282    1.65400607222267
H         5.60653634253725   -0.25480209900192    2.54327384268309
H         7.03941983049872    0.25415445355345    3.42517502862312
H         7.76702906229559   -1.90795815891557    2.16970889623983
H         7.85446502036416   -1.01222052627223   -0.38011937948987
H         5.68287305671928   -2.72441220556909    0.94750951352348
H         5.87114494148754   -2.53160982588598   -0.81221878331642
H         8.56321006218769    1.65415164567258    0.32233963856172
H         8.67115132421235    1.94469676575233    2.15023478801680
