30
 energy: -45.978789013327 gnorm: 0.103774826501 xtb: 6.4.1 (79825abcba525fcdf90b791dcacef51065a7a4e7)
C         1.06877560460948    0.01653140888042    0.03673198352284
C         2.54256216264188   -0.15534562262640    0.16396079899598
C         3.39726112756921   -0.63166357087729   -0.81628263124246
N         2.99870242396114   -1.44245358908731   -1.81450274487171
C         4.74225255414018   -0.32644954624027   -0.54070590703284
C         4.85077409194736    0.30473836251086    0.66886640840339
S         3.39469543502397    0.68487606218902    1.41790335377246
N         6.14063809777738    0.59649262622535    1.02660363502924
C         6.56710927004739    0.00692457135321    2.33036735660953
C         6.86526740293201   -1.44251445696278    1.89453025695537
C         7.86573249430805   -1.08479787078289    0.79843235170646
C         7.02260386911491   -0.09224133258876   -0.01954687764609
C         6.06231659551314   -0.74950704646570   -1.06082133564739
C         8.85247296249808   -0.16815675636658    1.48383493648989
O        10.05008545311041   -0.01754108638716    1.29235147357064
C         7.98307010435509    0.58915944081338    2.46065951409927
H         0.68661654438660   -0.07695339734824   -0.98417909054797
H         0.90884987926367    1.00402875169157    0.48091356341028
H         0.58739834967954   -0.69768013788204    0.71356961033836
H         2.03646077198007   -1.75837799839858   -1.74522027010022
H         3.69242801661408   -2.09374765364118   -2.16916290731491
H         5.83046692534019    0.20160975463526    3.11373276472105
H         6.00992698203857   -1.92977593721400    1.41549487099936
H         7.23944468618830   -2.11165324112174    2.67748827059213
H         8.27711592029040   -1.87133783597186    0.16888602447261
H         7.68172859616170    0.52857183769563   -0.63941594422207
H         6.12485573542062   -1.84271649740752   -1.06675345379558
H         6.36386701907476   -0.37115276226822   -2.04361174005732
H         7.84695124240188    1.64168340395526    2.20573044597910
H         8.44633395256884    0.64536144610689    3.44924877406075
