30
 energy: -45.976637763497 gnorm: 0.111849935191 xtb: 6.4.1 (79825abcba525fcdf90b791dcacef51065a7a4e7)
C         1.13145766249185    0.35663528763238   -0.08507574241891
C         2.56936790574756   -0.01820354887215    0.01334006646860
C         3.32599934695591   -0.78041405209467   -0.86119426096732
N         2.88297981176657   -1.41267702301996   -1.96421289585797
C         4.66228820365676   -0.73994286693609   -0.42439427812923
C         4.81254037778447    0.06747055524107    0.67047928979300
S         3.41809438421633    0.75024762443767    1.31473227248208
N         6.08044592617733    0.36170894929321    1.09789584535388
C         6.66093441413680   -0.03624781483292    2.41468418601993
C         7.16130081711282   -1.46662697931796    2.12593748190448
C         7.97213910839592   -1.03703295217110    0.90597337936290
C         6.91505789128818   -0.34772539815593    0.02702015131271
C         5.98805431783282   -1.14363385543100   -0.94539769233765
C         8.82251999942454    0.07507401274761    1.47495037905117
O         9.94777351865951    0.32681718926131    1.06991141230637
C         7.95959074811962    0.78103816609448    2.49502053821765
H         0.72613932090536    0.51261995797871    0.91913050886306
H         0.56640940342873   -0.53126850274640   -0.38569484152812
H         1.01904308871324    1.20742025589590   -0.76585417073222
H         1.89349800738404   -1.62981097445220   -1.89866984773750
H         3.41701290337615   -2.25166535483308   -2.16946936170266
H         6.02671692032287    0.07644491850453    3.29744924558552
H         6.28040076119973   -2.09299880727404    1.95221554209116
H         7.76847230794380   -1.81454411569801    2.96919014295368
H         8.52493226448556   -1.77180341496857    0.32395781959197
H         7.30787822036327    0.42809020819286   -0.64222897129326
H         6.13329550867966   -2.22623577243729   -1.02241277918196
H         6.04747082830482   -0.66328944129410   -1.92809831111044
H         7.83598629419896    1.84152751746638    2.26828689765026
H         8.53925734697052    0.67018265470152    3.41522620736381
