30
 energy: -45.980241276237 gnorm: 0.119702942611 xtb: 6.4.1 (79825abcba525fcdf90b791dcacef51065a7a4e7)
C         1.02195551180262   -0.27036544348628    0.25356200736698
C         2.49038025257213   -0.11282847635588    0.06202453675705
C         3.39387154547001   -0.63123260542289   -0.85078811881248
N         3.16017016978498   -1.58756900940366   -1.76919828462186
C         4.72871767913334   -0.28985224063296   -0.56839601962474
C         4.88462491068012    0.46746974730149    0.56093856847045
S         3.39076347500809    0.71301992328333    1.29156103279491
N         6.19026003713342    0.77106674865164    0.84376607324510
C         6.59409807326560    0.28524892107692    2.19660156527705
C         6.72509902031476   -1.24145957266648    2.01848454121327
C         7.74727956673807   -1.10081181232224    0.89345684766449
C         7.04141147355322   -0.12422196683173   -0.06213034856713
C         6.04185634020028   -0.70501591723572   -1.11187807341872
C         8.82996965205896   -0.25505864575406    1.52285985667124
O        10.03566561802971   -0.38999940675406    1.37550008270105
C         8.06504883171962    0.61909361070795    2.48946700501086
H         0.39504440172001    0.54143212514849   -0.12724181069255
H         0.85065398116956   -0.21568602954877    1.33323347074846
H         0.72762201376725   -1.28819687555750   -0.02449975125276
H         2.16045664474515   -1.71725778956153   -1.88865945949491
H         3.65351484018642   -1.61630094312289   -2.65633328219644
H         6.00541017665463    0.72765106848068    3.00402495263980
H         5.83445329984469   -1.74175771248948    1.62483767023497
H         7.14833565216042   -1.82541464296131    2.84349716687290
H         8.08066280075093   -2.00807383876220    0.39351559794460
H         7.84532239773683    0.49932863850155   -0.47323121982644
H         6.12306023359989   -1.79663010289258   -1.14081995774495
H         6.32483762617673   -0.27036498845758   -2.07674166747966
H         8.33940576432209    1.67249726548854    2.40951150132015
H         8.36203664288295    0.34378124146116    3.50488914504746
