30
 energy: -45.980875965789 gnorm: 0.108956827385 xtb: 6.4.1 (79825abcba525fcdf90b791dcacef51065a7a4e7)
C         1.13940756157201    0.24127835892438   -0.35284629322088
C         2.57953240035547   -0.08748520893620   -0.16382070242504
C         3.20308123950289   -1.32030754312007   -0.06582973985007
N         2.63163963207629   -2.53316095750102    0.05710914588880
C         4.58817888396936   -1.12320121088725    0.07823155911015
C         4.99159221531165    0.18435626147697    0.10636362442019
S         3.68661975996647    1.23745289209789   -0.01094123712656
N         6.33373468892035    0.44033518869321    0.20623346486681
C         6.80010655155940    1.10120880794476    1.46122802190988
C         6.77926032568682   -0.05257268129176    2.48498554041880
C         7.64818073552820   -0.95611304847011    1.61382866711308
C         6.93870203660385   -0.96636304907644    0.24940230805725
C         5.78147397556473   -1.99959613029321    0.07148386347853
C         8.83499111047112   -0.02918793024980    1.48751419678960
O         9.99540596567342   -0.40807993112419    1.42831209531374
C         8.30695250410652    1.37987623161811    1.34862998200430
H         0.57316681048216    0.26712051664759    0.58296777514423
H         0.62689952199304   -0.34981138125224   -1.11833499769805
H         1.07346453756385    1.29174534896816   -0.65632938588875
H         1.68910627789984   -2.68098402912111   -0.28972872604621
H         3.27621893626108   -3.26689101760202    0.33528302385641
H         6.10897606505966    1.93173836341961    1.62482794006262
H         5.77938673910653   -0.47156428301307    2.63731654639018
H         7.22771749181602    0.29068211229648    3.42404939290806
H         7.86321626885958   -1.98273177802988    1.90369712033489
H         7.60322490977432   -1.06610965209794   -0.61809525390250
H         5.96476581557458   -2.86601744491045    0.71551138798104
H         5.87010287024823   -2.46672307763875   -0.91537930860295
H         8.45834349584351    1.78259181409943    0.34552241311473
H         8.79244510411365    2.03753496868856    2.07448306969604
