30
 energy: -45.975872144989 gnorm: 0.109167393029 xtb: 6.4.1 (79825abcba525fcdf90b791dcacef51065a7a4e7)
C         1.09201418205321    0.16909123280441   -0.03449154626230
C         2.56557834489575   -0.02796180664407    0.05242487270407
C         3.30057110289536   -1.00079315470863   -0.60457673479490
N         2.86007064546184   -2.05296252482566   -1.31981925216802
C         4.66743162180212   -0.79382664413253   -0.34581574445212
C         4.90889808347799    0.33218668593454    0.39379781987533
S         3.52264572762077    1.08822727127442    0.97036795183839
N         6.23074588113900    0.54730505883020    0.68239463904982
C         6.70118897368668    0.59530920556296    2.09860327794916
C         6.87199698320426   -0.89968432185089    2.43852198658018
C         7.79280767831754   -1.14817197579681    1.24659760697779
C         6.95895735871832   -0.64598195037756    0.05595777495441
C         5.90601059492234   -1.53203810219287   -0.68201917554190
C         8.85312267554923   -0.08133696812845    1.39240420606895
O         9.99633312482971   -0.12569921652344    0.96260362845783
C         8.16567731930151    1.06022996462092    2.10501857017803
H         0.82197190895415    0.84539914779812   -0.85102638819392
H         0.54966791187308    0.48680616967495    0.86157891570956
H         0.84476179119245   -0.85103995298966   -0.34774859404099
H         1.86196127486555   -2.23743122128576   -1.30350119137715
H         3.41127584279421   -2.17279330040168   -2.16423407942527
H         5.99391214854161    1.13007477443961    2.73734494046215
H         5.92247159362648   -1.43531912361674    2.33850807619378
H         7.23197315513429   -0.93478813068328    3.47291237849043
H         8.21960111153143   -2.13446520823706    1.07547470982689
H         7.68230464307225   -0.32628642276902   -0.70473633874989
H         5.88071253750659   -2.60235756953115   -0.45217250826670
H         6.07227518722946   -1.38754665596764   -1.75507084990001
H         8.18895745086965    2.09501353351191    1.75860137724487
H         8.51776638096170    1.02152018785534    3.13924080453913
