30
 energy: -45.972219695320 gnorm: 0.122676197626 xtb: 6.4.1 (79825abcba525fcdf90b791dcacef51065a7a4e7)
C         1.07534661593141    0.18834436552164   -0.28286854238817
C         2.51514742046139   -0.06615291758736   -0.00006035197101
C         3.22159356281721   -1.17349341999354   -0.43937475316886
N         2.72652806066318   -2.21607975078194   -1.13262563405829
C         4.55708940756289   -1.07198130909229   -0.01013565864515
C         4.87658041680495    0.19178087401752    0.40708240757183
S         3.55197973401259    1.22007761449507    0.52440632093059
N         6.19416000973523    0.51390854596438    0.59960097827725
C         6.79102644591432    0.83313019993436    1.93043379809296
C         6.93934162230065   -0.54333165846619    2.61093442993534
C         7.83363382251036   -1.04274696292922    1.47905634978903
C         6.93953488913130   -0.77947975344529    0.25578129695437
C         5.82576720327169   -1.83483024611425   -0.03432084038954
C         8.92606908547622   -0.01880556708157    1.27462151640516
O        10.03847859797587   -0.25557569658629    0.82728310216102
C         8.24392181489917    1.26676983115737    1.68149545985023
H         0.88635604730943    1.26520970847106   -0.24178365888319
H         0.38058380217959   -0.09905844776099    0.51257396366974
H         0.84482828599195   -0.16140785008353   -1.29502764772238
H         1.73326636610398   -2.36560875187778   -1.27955957178344
H         3.25633613076313   -3.06057683730613   -1.32588989270732
H         6.11902762866753    1.51799291445784    2.45348855609968
H         5.97949406500111   -1.06538637928768    2.67917974338339
H         7.38390690127846   -0.30960406201572    3.58485009688922
H         8.24722083572298   -2.04929695281621    1.48265059779391
H         7.65544916593350   -0.52807138008592   -0.53690567539117
H         5.94701376861188   -2.72557718455612    0.59091703901738
H         6.01619227553686   -2.25942195027954   -1.02599708327997
H         8.37419113228937    2.14949653627679    1.05288799979684
H         8.68547149291179    1.57243761198795    2.63369390194057
