30
 energy: -45.975334693030 gnorm: 0.119988365907 xtb: 6.4.1 (79825abcba525fcdf90b791dcacef51065a7a4e7)
C         1.16075565005200    0.17071844248945   -0.34136150983608
C         2.61395404000464    0.02939565551117   -0.04807320401575
C         3.23511625096887   -1.20673526791049    0.01829063276639
N         2.62636392192319   -2.40626191619811   -0.03853646023077
C         4.63454353102683   -1.14972992111177    0.14656279180396
C         4.96780505665002    0.17413262397521    0.04876201141049
S         3.75508902557136    1.33411253616220   -0.04866738531166
N         6.32040044150146    0.37498746106527    0.13236025408310
C         6.71781169582226    1.04879951295722    1.40409513061869
C         6.73130249773837   -0.09986433049942    2.43371404773200
C         7.62705243883136   -1.00449159976168    1.59133425639820
C         6.96348434967194   -1.01352290500307    0.20399140217709
C         5.80525175718228   -2.05391414593661    0.08363491209604
C         8.78694456411922   -0.04485623434583    1.45936988460055
O         9.97715324320956   -0.32232589537443    1.45300193073616
C         8.21893047327597    1.34030955930520    1.25381913401357
H         0.55567158529215   -0.65742736791870    0.03954815412002
H         1.04964266166612    0.11706285074639   -1.42892737232393
H         0.89162223840795    1.10780930242317    0.15799737247989
H         1.64554240801272   -2.41740561826685    0.22296357439273
H         3.14882660714425   -3.19924793922017    0.32122582202397
H         5.99000779728610    1.84516755571135    1.57817857590798
H         5.78629687180357   -0.60931946867350    2.64801690183627
H         7.13582400826757    0.14618932267301    3.42194405490223
H         7.90208822834289   -1.94597318721077    2.06269160095928
H         7.76808838460657   -1.04533246412286   -0.54145648479172
H         5.89250608246981   -2.74660553516950    0.92720978206695
H         5.85061072531110   -2.60785332493660   -0.86032247358093
H         8.57727491894366    1.86582215620370    0.36683005190111
H         8.68821004299166    1.80975726453309    2.12242509557485
