30
 energy: -45.974331782536 gnorm: 0.124767207407 xtb: 6.4.1 (79825abcba525fcdf90b791dcacef51065a7a4e7)
C         1.15146278824187    0.09452135719149   -0.71104785983150
C         2.53968068359574   -0.04835057493441   -0.19122635748082
C         3.19036427078710   -1.25540031402585    0.00347363977456
N         2.58974999408122   -2.45928729309809   -0.04743328034559
C         4.57103800444628   -1.16508046674495    0.25582741648580
C         4.88522876560759    0.16647152012385    0.21717831543258
S         3.62565556818995    1.27260428199254    0.09199147876913
N         6.23568655318505    0.38937572085113    0.27568565142631
C         6.90123322842695    1.10735486072199    1.40299287810267
C         6.86929146787877   -0.00410911505744    2.47226987868911
C         7.74624640376956   -0.91673327815046    1.61881258627470
C         6.87528662671135   -1.00037806232759    0.35407664812584
C         5.72940601928059   -2.04773600878046    0.52260357269282
C         8.92674970269417   -0.05113780652799    1.24355157213703
O        10.08459815839811   -0.42415977657869    1.12578808701134
C         8.39753274298243    1.36207643012373    1.16398813249162
H         0.99364183242050    1.15342852285731   -0.93655291852433
H         0.44901688540519   -0.10475357956561    0.10435619687962
H         0.95314594762039   -0.54084235092566   -1.58105634364140
H         1.59085548114614   -2.39772406402626   -0.21754209488294
H         2.86568299864577   -3.18900392937655    0.60264178921694
H         6.40146240865599    2.06633856299462    1.56042545441322
H         5.86561142817617   -0.38341645535131    2.68965940772776
H         7.23042857729182    0.40655140732687    3.42185743476577
H         7.97354100516555   -1.92947706307146    1.94576396978334
H         7.47403708323519   -1.21344990504179   -0.54045693841067
H         5.80700686165654   -2.43761420323917    1.54291055742840
H         5.88635917612409   -2.79094745012983   -0.26667714819793
H         8.71979597407373    1.81528763552630    0.22480237661185
H         8.74171238162971    2.09003469659830    1.90337837035520
