30
 energy: -45.983989760745 gnorm: 0.108280424341 xtb: 6.4.1 (79825abcba525fcdf90b791dcacef51065a7a4e7)
C         1.10536023086249   -0.19271501329494    0.33263345783554
C         2.58976324038221   -0.20553838628783    0.21364204158630
C         3.36704226595013   -0.61056419359655   -0.85876538415219
N         2.97667126320073   -1.33515618625576   -1.92424639960452
C         4.73356737207973   -0.36109702278755   -0.63859432231366
C         4.91273162016717    0.41786027482941    0.47242590648671
S         3.50726795253930    0.74742695025276    1.33369457699423
N         6.19681745684084    0.65590366306073    0.88631538992289
C         6.52925256235296    0.12886348965491    2.24314387608498
C         6.74266182048934   -1.37776181294614    1.98964351991403
C         7.78631425839756   -1.11885735527399    0.90609368545888
C         7.06606481212679   -0.17028185648111   -0.06682441843945
C         6.07574077508253   -0.75780355559635   -1.12156557894591
C         8.81934584273611   -0.23266029952666    1.56272517290643
O        10.01371744699480   -0.10590685430999    1.33681211728191
C         7.96574768728251    0.62628109892598    2.46669711354218
H         0.76141615923299    0.83180033642459    0.16200186427117
H         0.83761696745591   -0.39788090831826    1.37390432571603
H         0.69603081338922   -0.87490282978312   -0.42036094983230
H         1.99154262078794   -1.57873276871067   -1.95087892242429
H         3.54379465056246   -2.12222194363755   -2.22444890221399
H         5.71263119487030    0.38820437974444    2.92143398249255
H         5.86064469278815   -1.84240105108045    1.53724761901992
H         7.11172453335472   -1.94258552588871    2.85309328097647
H         8.23782366544061   -1.97959742514482    0.41673103360108
H         7.84366360501170    0.45776178089025   -0.51958634620751
H         6.12570719742195   -1.84624701255934   -1.01271970974716
H         6.29195031714351   -0.39652797713838   -2.13284940674911
H         7.97336416529997    1.66208171297743    2.12262888777061
H         8.24817833433664    0.54056102110013    3.51929664806142
