30
 energy: -45.974882130933 gnorm: 0.118398325540 xtb: 6.4.1 (79825abcba525fcdf90b791dcacef51065a7a4e7)
C         1.15149688136288    0.16749811597566   -0.26847050642142
C         2.62288749219136   -0.04354758354807   -0.17766796491169
C         3.18744441946393   -1.30783385733963   -0.14417160100532
N         2.59131436184662   -2.49752018960735    0.06064122396968
C         4.58388605514906   -1.15324635204291   -0.07972369352214
C         4.99386361464260    0.14740176879358    0.03635022831446
S         3.73724640578207    1.26379701129542    0.05369725643734
N         6.33680642748229    0.40756878820646    0.11160547273725
C         6.83067484775673    1.15094364607654    1.30858325265737
C         6.73297987457390    0.05125411622046    2.38601741704843
C         7.63086263213363   -0.91489940279459    1.61746286009933
C         6.91552492940045   -1.00311608643107    0.25892166597403
C         5.76605145651257   -2.03677259511216    0.03831493901719
C         8.86502485494182   -0.04906736433160    1.51333369305950
O        10.02110102023035   -0.44503614837314    1.49535313919585
C         8.35236240117029    1.36176434478440    1.33924604153983
H         0.65353686325811   -0.72031252162650    0.13261859513942
H         0.82135867062297    0.50101187277937   -1.25730915036394
H         0.91129160864797    1.02097421047134    0.37481119903843
H         1.59969420597281   -2.65222963524896   -0.09190960764099
H         3.14322077085832   -3.34516200124110    0.15078374300618
H         6.19026229395365    2.00870649096593    1.52840202497216
H         5.67629318628700   -0.23251207921993    2.42337885154320
H         6.99173415682864    0.19718583564114    3.44078220569406
H         7.89033138306816   -1.81680879035309    2.16832168586514
H         7.66385684795860   -1.19651035714176   -0.51998144369321
H         5.67564097181723   -2.61702042219119    0.96253982351858
H         5.93593515954929   -2.69010780409107   -0.82438676654602
H         8.71361362580724    1.83947655506678    0.42677003206391
H         8.53719392560802    2.08501011546605    2.13789092387229
