30
 energy: -45.979072467918 gnorm: 0.110644537505 xtb: 6.4.1 (79825abcba525fcdf90b791dcacef51065a7a4e7)
C         1.12263131235582    0.27809003053749   -0.20291538817974
C         2.56159699546211   -0.10212860934983   -0.25378040734824
C         3.17272115382012   -1.29123246767011    0.10791776326831
N         2.56740319618080   -2.47349601020496    0.32818117727501
C         4.57203207182678   -1.15901935968751    0.15840242577334
C         4.97318293202435    0.14693613192066    0.07594936156725
S         3.73493402560256    1.16006832207704   -0.43983049503816
N         6.32744695935320    0.35351303879197    0.08780408618150
C         6.86244320195463    1.20575929517587    1.19085591040526
C         6.76374246937987    0.24325670082333    2.39234359942101
C         7.62771808318740   -0.83839900488607    1.74900135302309
C         6.91842376801310   -1.02546940134848    0.39732438668566
C         5.73426083102447   -2.04337965306888    0.40170871472766
C         8.88447094508319   -0.06396214708840    1.42576122064162
O         9.98584715043067   -0.52452843084132    1.68744008080215
C         8.37538469655057    1.26985157047424    0.93043550417817
H         0.89713264907527    0.94425206342276   -1.04102210653195
H         0.90607541883629    0.79836501837825    0.73540332333676
H         0.52285181691233   -0.63598899033303   -0.13468439871909
H         1.56012225318983   -2.54924841187467    0.42899769890260
H         3.09428506853918   -3.32493587086390    0.15886299405793
H         6.31103529820833    2.14087610340148    1.31620144891077
H         5.73747280319819    0.05312388893989    2.72268580600164
H         7.30632379011968    0.59911082952442    3.27537924520079
H         7.76842804594131   -1.75713823201825    2.31497746309197
H         7.63355138807899   -1.26563669222794   -0.39954713106879
H         5.63590526857625   -2.71580285623204    1.26032763980512
H         5.92002906970525   -2.83226332405890   -0.33525418220794
H         8.71573885700507    1.40261977665027   -0.09808552962608
H         8.86458762605956    2.02855208700985    1.54698623404607
