30
 energy: -45.977279286839 gnorm: 0.123578356982 xtb: 6.4.1 (79825abcba525fcdf90b791dcacef51065a7a4e7)
C         1.16996522287718    0.21269439955644   -0.40680912408698
C         2.61127053201186   -0.10422544864938   -0.20686785385428
C         3.27067744522329   -1.31900159286447   -0.11873321722067
N         2.52945739516773   -2.43549260289426   -0.24801405585366
C         4.66084889767141   -1.15246991628599    0.01464811100200
C         4.94466560236440    0.17005993828213    0.22346173174131
S         3.66015076633835    1.24513571541832    0.08218268295265
N         6.29773036972481    0.36234457598198    0.31879256329093
C         6.84286098895616    1.08789769121118    1.50440349439729
C         6.83109708310226   -0.03561551003296    2.56143019407834
C         7.72684463676802   -0.96093261868791    1.74182861975432
C         6.90598839278432   -1.03804533407261    0.44360944252223
C         5.75091883208716   -2.08672183953558    0.37657025700673
C         8.86483709169695   -0.04120390046812    1.36402358645204
O         9.98822826159068   -0.36684948499805    1.00965949955636
C         8.33103602910807    1.36736582563943    1.24334566839092
H         0.64296713127127   -0.07645761587777    0.50736180763387
H         0.74014284376885   -0.40663917235593   -1.20034751082936
H         0.88823368408189    1.25212381059184   -0.60717183005436
H         1.62271687188161   -2.21347664078582   -0.64682205257682
H         2.89275599159219   -3.21857339411685   -0.78282391951881
H         6.29470072648268    2.00459337327611    1.73547703434158
H         5.79194852167787   -0.31120210053056    2.76813816529689
H         7.34239837117974    0.23983546035825    3.49066447991230
H         8.11516707251422   -1.84985151862453    2.23502117184148
H         7.60364589913468   -1.04527634607904   -0.40333434020463
H         5.56111751177968   -2.41000553307023    1.40541249003991
H         5.92293942501489   -2.89258137563782   -0.34520596580275
H         8.53635357631312    1.80385112174115    0.26423936183316
H         8.71721083883164    2.09583642067342    1.96117600507597
