30
 energy: -45.979103007334 gnorm: 0.129157373347 xtb: 6.4.1 (79825abcba525fcdf90b791dcacef51065a7a4e7)
C         1.15071707263691    0.21210023385466   -0.56519445064194
C         2.56116090097581   -0.06646801989304   -0.17683428575066
C         3.16529205014103   -1.31257263879434   -0.15413856616066
N         2.48395819550832   -2.47338815020916   -0.12308383717773
C         4.54275378839259   -1.16766616800104    0.09019994234582
C         4.89714449503722    0.14182206862273    0.27155054329257
S         3.63499294235932    1.24789036552070    0.17504963266164
N         6.24578484984943    0.37542213950328    0.33025152009700
C         6.85356882893423    1.05603692059095    1.51204259601392
C         6.96805918034490   -0.00733427952023    2.62373472952562
C         7.77175711629238   -0.91777899620587    1.69881191232076
C         6.92736685675220   -0.99380818804414    0.41571058007106
C         5.72278656728895   -1.98694145254761    0.44849786310237
C         8.87849291044364    0.01831659373522    1.27158210019087
O         9.97669573893986   -0.35530287171982    0.88689298623304
C         8.31020087518475    1.41557705087285    1.18057230633912
H         0.45049044644945   -0.47899154017384   -0.08653047484799
H         1.05902464454872    0.03281891447178   -1.64105467558915
H         0.94804389430948    1.27796069487167   -0.41420960019412
H         1.71106472893527   -2.57879658236190   -0.77273146331521
H         3.06932372559311   -3.30193598152085   -0.16867626185608
H         6.27910887085145    1.91270008099480    1.87305452521193
H         6.00879812497636   -0.45132960664679    2.90867729318995
H         7.51172579857215    0.22375342947468    3.54666684112804
H         8.15345733249741   -1.86458507573155    2.07573791333899
H         7.60822118232733   -1.09781697173607   -0.43852101406013
H         5.63133725833790   -2.52077398976242    1.40018745574434
H         5.97442865470646   -2.77162196006398   -0.27324610090409
H         8.57205449984568    1.61110716822682    0.13916723601665
H         8.76980192693722    2.12309926942658    1.87574132668785
