30
 energy: -45.977122388385 gnorm: 0.102520884308 xtb: 6.4.1 (79825abcba525fcdf90b791dcacef51065a7a4e7)
C         1.03267501812726    0.31393126970669   -0.04997043344375
C         2.50614094670192    0.10294391146825   -0.00351399029990
C         3.32406139511198   -0.69644802851318   -0.78469576096157
N         2.99414368057696   -1.43012831693648   -1.86429773079063
C         4.66185705412956   -0.73189234611384   -0.35209141407348
C         4.79568566520736   -0.00274003899499    0.79841589724393
S         3.37459793834266    0.68060827171733    1.38088546870759
N         6.06848160489636    0.42561647078850    1.06924202906835
C         6.66041507694700   -0.03428883764170    2.36050879288872
C         7.07335018925710   -1.47894817797573    2.01098092935624
C         7.96905603303425   -1.04323993784815    0.85417863778020
C         6.95076072006334   -0.25207735431302    0.01616861608721
C         5.99884088861615   -1.17744968643921   -0.80598528519057
C         8.87303503296427    0.02596014782242    1.42277122368928
O         9.98032096742527    0.33068938790790    1.00481832918980
C         7.98740594956524    0.73812069240131    2.41879526488032
H         0.67575371747753    1.31734932420925    0.20063637238591
H         0.55704491973262   -0.43384335194851    0.59239523227895
H         0.71381261888806    0.11377643545418   -1.07865706271524
H         2.18994941750511   -1.14602904366160   -2.41482155423463
H         3.89679463522591   -1.75701275530176   -2.19534273132430
H         5.97316288107769    0.12081466328787    3.19587275353723
H         6.22892085466448   -2.10507374049892    1.70534754617472
H         7.63242244802168   -1.98649346865392    2.80509338317748
H         8.49069238983181   -1.85442154001347    0.35010529371099
H         7.37967256178764    0.55000108147184   -0.59766920382118
H         6.25065282936365   -2.22548176339361   -0.61292376409883
H         6.16561256094041   -1.00457813873631   -1.87475290680943
H         7.92367087116030    1.76819743252201    2.06354378223936
H         8.32377454384473    0.61695716708614    3.45187626390801
