30
 energy: -45.970080839687 gnorm: 0.116900283013 xtb: 6.4.1 (79825abcba525fcdf90b791dcacef51065a7a4e7)
C         1.21234062383175    0.30457367434269   -0.57172087554551
C         2.61242117774199   -0.10790694433709   -0.27606923248163
C         3.22958257242380   -1.33572850469147   -0.10334884994180
N         2.58672581518790   -2.51852084124826   -0.12360651188493
C         4.60952839845288   -1.17914831429962    0.11875974659185
C         4.97760917670894    0.12397530508947    0.31782167407012
S         3.68014294980415    1.18252924372386    0.17027165103734
N         6.33254294181714    0.32498232257206    0.34224070841501
C         6.76828394127945    1.13321657114477    1.51959162119258
C         6.80248192236370    0.01744715821436    2.58430513269081
C         7.71869839191609   -0.86674241333590    1.74223722791205
C         6.95191031362090   -1.07363705649712    0.42528809138089
C         5.75212615113324   -2.07303945945407    0.41455657969375
C         8.84016936081178    0.01339644699944    1.24091613624765
O         9.93641868049000   -0.32032230570239    0.81606805072355
C         8.26012470522526    1.40836370453121    1.27541184262215
H         0.47928171544718   -0.21317434306226    0.05406343585518
H         1.07519888945818    0.21822181544378   -1.65419952347127
H         1.15906763870541    1.35994418912898   -0.28312698683436
H         1.73077632123351   -2.43514962452076   -0.66297372362761
H         3.20261673370630   -3.31297308529750   -0.26764468016535
H         6.14898101636656    2.01327271608451    1.70977757129736
H         5.78912526383735   -0.37120346876322    2.72770966375539
H         7.09502273476399    0.16391352550189    3.63012829175668
H         8.06525528987118   -1.84063211650322    2.08230660275168
H         7.51735232193770   -1.06763198410690   -0.51510083391185
H         5.68733502827762   -2.57124745064882    1.38751297392650
H         5.72195510501941   -2.79868431089195   -0.40549881101609
H         8.38903893828091    1.82603251063088    0.27528297282115
H         8.86349674832486    1.94320400483438    2.01363187335871
