30
 energy: -45.982412675419 gnorm: 0.114022826580 xtb: 6.4.1 (79825abcba525fcdf90b791dcacef51065a7a4e7)
C         1.11683641724567   -0.18018213333372    0.19032676368166
C         2.60473586896524   -0.12538216551048    0.15986550626212
C         3.39599184017944   -0.75704607043959   -0.78521702181761
N         2.93618804910752   -1.56258672332348   -1.76110513518953
C         4.75498899525834   -0.42966003476406   -0.63015199199232
C         4.90831244430807    0.44872302591398    0.40820025226478
S         3.51309379504832    0.88035817684711    1.24053556190512
N         6.19495004001662    0.62337496637076    0.84512817376026
C         6.59428562469902    0.31683258914774    2.25077068177385
C         6.77222384807624   -1.21305553603081    2.16413315132300
C         7.72866300744888   -1.18797809051484    0.97463013301637
C         7.05147320013943   -0.27041805174926   -0.05717504289305
C         6.07345927821527   -0.93166987111211   -1.07924997360041
C         8.77980706204182   -0.24233855236540    1.50804032013547
O         9.94260273954469   -0.08948480150156    1.16428369507416
C         8.06515573994391    0.72763778005078    2.42017781550698
H         0.76260744325125    0.38328960139810   -0.67804286297888
H         0.80990859471016    0.30301894804868    1.12324505901161
H         0.67628581779942   -1.18299648557817    0.17583820135640
H         1.93177186716308   -1.67742215749329   -1.66902777930949
H         3.32068631692591   -2.49290944768040   -1.89483508264480
H         5.97833352359364    0.82375859171909    2.99765398324240
H         5.78790086599020   -1.66534829506780    2.00587571987331
H         7.19446350047814   -1.70816953421074    3.04581019450099
H         7.99727271241812   -2.17110125663061    0.59314922142322
H         7.80897816312524    0.27847128092001   -0.63075920316069
H         6.01785114909027   -2.02522260374811   -1.06908197730809
H         6.27959053482902   -0.57591185802764   -2.09458623764900
H         8.23920864586026    1.78623676181994    2.21918614643370
H         8.35984371621023    0.57338385325883    3.46154494858061
