30
 energy: -45.974061408060 gnorm: 0.131847436299 xtb: 6.4.1 (79825abcba525fcdf90b791dcacef51065a7a4e7)
C         1.09750094284160    0.13035779092779   -0.29133777536150
C         2.57311932729277   -0.06692443596990   -0.25384356812624
C         3.24509821581830   -1.27747219557418   -0.21799967001238
N         2.59319197965965   -2.45415005005378   -0.27385999091774
C         4.62907174631267   -1.12262539463679   -0.02117538403024
C         4.94308057623886    0.20803577133141    0.04190867755725
S         3.65090735044390    1.27768029098336   -0.06706393299609
N         6.28534436573976    0.37672907689991    0.25804779807474
C         6.76860384139451    1.04741753817555    1.50139218749893
C         6.90591124082438   -0.00958996725411    2.61656372807925
C         7.69896196223685   -0.93323228730731    1.69554386256811
C         6.96636451928368   -0.99270836590079    0.34465972070913
C         5.78077918678521   -2.00623577964743    0.27014820143685
C         8.88534777537428   -0.05752482158879    1.36495420141659
O        10.05855697101035   -0.39987664475454    1.36639874496793
C         8.26597369535576    1.31875959853998    1.28884669774459
H         0.53403491850040   -0.47465739144165    0.42525628442131
H         0.66911722984015    0.07552168835322   -1.29707378593212
H         0.86296398858270    1.16603718479945   -0.02246609807677
H         1.63739170244934   -2.47779348596759    0.06732047516046
H         3.04653136261961   -3.33663518325067   -0.05723500206356
H         6.25596998569691    1.98373739125300    1.73530946665608
H         5.96809932897456   -0.43156149112333    2.99200312444250
H         7.54405508426548    0.52135669957840    3.33185854487270
H         7.80210524564415   -1.95101781005621    2.06660195917908
H         7.60175310567031   -1.10161998729669   -0.54332207051520
H         5.63238513336788   -2.64053599767901    1.15031618420887
H         5.92881998270073   -2.57964514826223   -0.65139789327244
H         8.49209215799367    1.84051028265114    0.35719733570698
H         8.76396480947852    1.84892332902914    2.10494231271861
