30
 energy: -45.979636237575 gnorm: 0.104713168153 xtb: 6.4.1 (79825abcba525fcdf90b791dcacef51065a7a4e7)
C         1.03863651127236    0.01012419009569    0.08035592227084
C         2.52218854228032   -0.04463021902224   -0.03733446244924
C         3.31079279236952   -1.05754535394955   -0.55730806578952
N         2.80422977455252   -2.05734057295894   -1.30328146292199
C         4.68071109560324   -0.88537932999808   -0.28938501410096
C         4.92490635248392    0.31940848150130    0.31235852623322
S         3.52608837684928    1.18446777583532    0.65978730534662
N         6.24528805230695    0.61660684350748    0.52475186275777
C         6.75427526604695    0.81321473597204    1.91455233537860
C         6.82878151360014   -0.63173657400634    2.44961334024511
C         7.73447054349311   -1.07044775644626    1.30175356972603
C         6.95844285483909   -0.65036511004714    0.04221556971640
C         5.90552246052385   -1.70688974371422   -0.41986310218139
C         8.89917352183855   -0.12681541609487    1.49329825383991
O        10.09614506160614   -0.37042008685703    1.45402266460197
C         8.23450427896784    1.20083808477601    1.77459238450491
H         0.71876713473201    0.74662388792894    0.82352222267439
H         0.72845021556206   -0.96367325926871    0.47218178705873
H         0.60156619941594    0.32589370502962   -0.87315890455272
H         1.84555943463631   -2.28622178625972   -1.06021386805989
H         3.42140438665660   -2.84519828020128   -1.47532423727172
H         6.05826726317055    1.41680162099000    2.50231194747400
H         5.80875466235296   -1.00923807469116    2.32493885937540
H         7.06373730935504   -0.82976906512799    3.50144864606420
H         8.13815983235898   -2.07289553020594    1.17391212094618
H         7.48592104672023   -0.33723665712188   -0.86762473696608
H         5.76764259243012   -2.54951038215056    0.26572630243256
H         6.26390833664920   -2.09101109824086   -1.38109769918263
H         8.34504230784674    1.85605892066850    0.90868773104045
H         8.64574270176719    1.68753997403046    2.66289695785368
