30
 energy: -45.972936229658 gnorm: 0.120616756158 xtb: 6.4.1 (79825abcba525fcdf90b791dcacef51065a7a4e7)
C         1.13619248890081    0.15398490882741   -0.40947003262909
C         2.55442319954463   -0.06052984171448   -0.00899436062107
C         3.20252312796226   -1.28437254242564   -0.03001338501631
N         2.63971937669418   -2.49178679631894   -0.22514315744083
C         4.58461365313538   -1.10770297478755    0.16159478320583
C         4.93206925611002    0.21456784854461    0.22574112300962
S         3.64111083606964    1.28477480106116    0.10822727170040
N         6.27654938141110    0.42896897673630    0.37822383410280
C         6.85889317971175    1.13358327315662    1.55875862697688
C         6.81408847304164   -0.01104710782517    2.59197669547620
C         7.65597249329422   -0.94592676267415    1.72736493242796
C         6.91523048532801   -0.96341500777853    0.37973003469488
C         5.75842125269597   -2.00505240298854    0.25649732850189
C         8.84417384312059   -0.10683120067019    1.31777907518791
O         9.99611470880967   -0.44751550888604    1.09284993830499
C         8.30916849951892    1.28533139413665    1.07441104542528
H         0.46066037245206    0.21753286903327    0.44882035450049
H         0.88698895989121   -0.76790576195320   -0.94429683347858
H         0.89179234861235    1.06351022596951   -0.96890156667832
H         1.85716578118624   -2.49484436076553   -0.87176345206194
H         3.37012293231794   -3.08177313668589   -0.61198904163138
H         6.25472435970083    2.00285475793935    1.82996473228112
H         5.75107715041063   -0.22931565791381    2.73644695213700
H         7.34892862454585    0.20620487446279    3.52338755619601
H         7.90796672697962   -1.95274603437130    2.05450997351873
H         7.65501536586652   -0.87921766674058   -0.42632281431388
H         5.78461402683352   -2.51539823909443    1.22495708273963
H         5.98642945027172   -2.83633070327642   -0.41948363051866
H         8.45708346752874    1.58402753507591    0.03507200267638
H         8.90552837855973    2.01539418539022    1.62798488735526
