30
 energy: -45.976231119953 gnorm: 0.112719137223 xtb: 6.4.1 (79825abcba525fcdf90b791dcacef51065a7a4e7)
C         1.03225572764744    0.18210209548657   -0.10429086141854
C         2.51890247366898    0.09958359326586   -0.07517307310708
C         3.22722486363718   -1.00950296387807   -0.50699790559077
N         2.82202979832439   -2.05153571082433   -1.25710296381524
C         4.57684405937113   -0.86337394398304   -0.13920124660355
C         4.83296518760977    0.29129451612525    0.54955341825819
S         3.45517864147479    1.19124191840413    0.89237256441636
N         6.17487165323421    0.54304588910227    0.66248659487906
C         6.67448878810297    0.49314904437035    2.06860217151167
C         7.06727223065618   -0.97147740416643    2.35200344615837
C         7.89535927648274   -1.13505860374650    1.08006193393083
C         6.92012659215244   -0.62357012099390    0.00655127628761
C         5.81071510743221   -1.55671672050799   -0.57383303675879
C         8.91670547320778   -0.06505504971355    1.38926855402471
O        10.13834235631968   -0.09222183584224    1.41144891088688
C         8.09259080811742    1.07208960862141    1.94722236384147
H         0.77469810353193    1.23972898419130    0.00586269015079
H         0.64433575839903   -0.38946804997155    0.74473810532518
H         0.61795711130240   -0.27162780859520   -1.01116306827653
H         2.02504047753316   -2.04193406860154   -1.88577865858806
H         3.57380518823564   -2.57269157680517   -1.69807157017089
H         6.03468193597294    0.99347968059463    2.79971233695501
H         6.32222291466203   -1.77347326665586    2.36649625656208
H         7.72923278074013   -0.97970266510689    3.22522688726433
H         8.27150980364564   -2.13391863973428    0.86793124051655
H         7.51344502665066   -0.21183731641865   -0.81960935599673
H         5.89239053318523   -2.61527447701904   -0.30580721447259
H         5.97010721058114   -1.53230469333973   -1.65732729255997
H         8.15943335707950    1.97066451339701    1.33125233014977
H         8.62942678433091    1.20635250077013    2.89001682341909
