30
 energy: -45.980742352340 gnorm: 0.123373520700 xtb: 6.4.1 (79825abcba525fcdf90b791dcacef51065a7a4e7)
C         1.12290153765424    0.06611001451089   -0.06956548307231
C         2.59084631242877   -0.08323807731704    0.13195126075232
C         3.30892322054908   -1.11203410574769   -0.45474336964434
N         2.93089777365420   -2.00480592596281   -1.38894256614007
C         4.66247799128294   -0.80703055498245   -0.22460778912071
C         4.93187144441643    0.36941700776338    0.42086769480841
S         3.52992979321593    1.23860649815030    0.74458873568659
N         6.25101415752515    0.64073673970127    0.67205237449919
C         6.61942670222142    0.56255245178917    2.11684558145655
C         6.86691108130591   -0.93699240228368    2.38112282596009
C         7.79736595459942   -1.14568678182809    1.18905631857114
C         6.98916030269575   -0.53818556828446    0.03023351997391
C         5.91854806751514   -1.53348066261450   -0.51892900905161
C         8.82011885620606   -0.05297313064180    1.39790498136228
O         9.94638831482182   -0.08586672542804    0.92455332443398
C         8.08368235457158    1.02653376895863    2.15678675059175
H         0.70370226528791    0.81386281090335    0.61027427840891
H         0.55100196450839   -0.86707688804162   -0.05872047783491
H         1.02633902512887    0.53769454677299   -1.05354468816679
H         1.95093019004359   -2.25879523004518   -1.31364145663738
H         3.41132106937667   -2.89753891174169   -1.33025474341648
H         5.85155605893450    1.10440937912175    2.67449365382295
H         5.97157752768548   -1.56678941857890    2.39659648173362
H         7.42426660076458   -1.07139960370156    3.31496870831877
H         8.15061924504682   -2.14454918957203    0.94066948174566
H         7.65985840027777   -0.18197264164002   -0.76183243156689
H         5.98521215572561   -2.51189491282025   -0.03177944802615
H         6.00725420688518   -1.72093204200586   -1.59454734095571
H         8.11427086928148    2.03352273860691    1.73683267511300
H         8.43035467426704    1.00431551488974    3.19332205361825
