30
 energy: -45.976917706417 gnorm: 0.114348285212 xtb: 6.4.1 (79825abcba525fcdf90b791dcacef51065a7a4e7)
C         1.05544989163014    0.23831279458224   -0.30355800157823
C         2.51304555423825   -0.04374889489551   -0.18680264920662
C         3.18727530997737   -1.25297158006329   -0.22502635173300
N         2.74603198301841   -2.50386596855546   -0.45576527610956
C         4.57052048760892   -1.12452645274082   -0.00540235376989
C         4.90195652096549    0.19642222197150    0.13055740155125
S         3.63212794855909    1.27617497089842   -0.08714764709899
N         6.22808645633872    0.39719383744025    0.40969143462349
C         6.82992607090447    1.06168020530006    1.60364075088415
C         6.92361183122685   -0.10220046574669    2.61177294525014
C         7.74730014880225   -0.97543605897424    1.66873565495166
C         6.89625078571879   -0.98111164252883    0.38779570542664
C         5.71115695250716   -1.99738400737695    0.35395113525097
C         8.88131325343031   -0.05033365521990    1.29208699799938
O        10.05227025479663   -0.36688970952942    1.14282668488745
C         8.30183463557646    1.34504847258159    1.26584467521762
H         0.62567876977214    0.08406225359373    0.69069947281595
H         0.59909444982977   -0.55644024957273   -0.90199917303583
H         0.96697242652642    1.27787765937332   -0.63733637115512
H         1.74849929493011   -2.67794860677307   -0.52746651246251
H         3.30139352761530   -3.14172181540483    0.10631697340516
H         6.25248954058902    1.95177509323051    1.86537301739063
H         5.98799295682874   -0.60357573039370    2.87962748919711
H         7.36714745545334    0.16901935132792    3.57639440857680
H         8.14518558712634   -1.93206888745241    2.00152812838158
H         7.53177593731790   -0.97091580143764   -0.50668508571224
H         5.52285069968647   -2.31770226257978    1.38399492171802
H         5.98146057965231   -2.81980719344374   -0.31725498698187
H         8.38985087835005    1.95146001306803    0.36260491967102
H         8.88103911445620    1.78447535776282    2.08224345621441
