30
 energy: -45.972644399790 gnorm: 0.127423519417 xtb: 6.4.1 (79825abcba525fcdf90b791dcacef51065a7a4e7)
C         1.22455936937332    0.23260764215984   -0.55136831510024
C         2.60624124860478   -0.07875037436498   -0.09116501375341
C         3.24909352958624   -1.30266500941668   -0.00725908448454
N         2.61560517825052   -2.49064387501474    0.00120364902478
C         4.62081694458670   -1.07034281428161    0.19889942852832
C         4.98962773363990    0.24707980778703    0.23910538479259
S         3.68057678921958    1.27740510427946    0.01429107545799
N         6.34697622454527    0.43086599947803    0.26505398735839
C         6.77198220641310    1.01676289075153    1.57094936440836
C         6.79026874000941   -0.17838081885200    2.54615337519578
C         7.65626758815265   -0.99287944913749    1.58857301398838
C         6.96531801722705   -0.96976943550940    0.21482668009654
C         5.78175139091968   -1.98777051197591    0.25012830124908
C         8.81842466658210   -0.06338050118159    1.32572892748489
O        10.00560152716490   -0.32640903801987    1.20303515370980
C         8.25213303584420    1.33758194578629    1.31182154452723
H         0.60855489879318    0.38725200935682    0.33951213909436
H         0.56468361797677   -0.51383404237721   -1.00459379719215
H         1.26534305535032    1.14127630628703   -1.16176926483830
H         1.61343288353102   -2.53485800075340   -0.15440193622686
H         3.15686596760718   -3.23780834345472   -0.42306631290895
H         6.26791472209788    1.93900104754850    1.87027924749336
H         5.76978151505619   -0.53153253159881    2.72614109256095
H         7.21053433596831    0.05129743723115    3.53175133087814
H         7.89538915026299   -2.01543531270976    1.87389809159786
H         7.65432816608775   -1.09160191073865   -0.63046257178423
H         5.74662678625771   -2.53744590340099    1.19653014939296
H         5.79133533334881   -2.58275227986844   -0.66958167046397
H         8.26387002938438    1.79985076339574    0.32313875942105
H         8.71037799520616    1.96039839646507    2.08460353701258
