30
 energy: -45.980644243623 gnorm: 0.115429025891 xtb: 6.4.1 (79825abcba525fcdf90b791dcacef51065a7a4e7)
C         1.08861617415313    0.09350217595911    0.05939182563645
C         2.56989867179333   -0.04597403209602    0.12361215731810
C         3.31848620534674   -0.91264284106615   -0.65534109450737
N         2.91291508456223   -1.56231252947037   -1.76264152827892
C         4.67929462344741   -0.69077684958190   -0.37771547828923
C         4.90335793615892    0.22090165586741    0.61821534950891
S         3.50814422703956    1.00277809807733    1.13568417876021
N         6.20550513409292    0.55572760536487    0.88117898531915
C         6.59863153056461    0.17341988685642    2.26990517633430
C         7.01410255930879   -1.30702057769599    2.14578587075321
C         7.87769309723407   -1.10810025274236    0.90281995845498
C         6.97607288205614   -0.34920051537363   -0.08524711913209
C         5.96255323078708   -1.26959107455257   -0.83628739440156
C         8.79169916298794   -0.03224569548304    1.44207339413450
O         9.97707745526588    0.15245493918393    1.20885535848958
C         7.98429935721059    0.82691232832789    2.38733973173325
H         0.72402184564555    0.29686735173723    1.07070678747866
H         0.66143680777301   -0.79841371650001   -0.40967997183516
H         0.87828310764536    0.90335522994689   -0.64759431184561
H         1.90080074658689   -1.53966931074442   -1.83766909774428
H         3.16575540845042   -2.52023284666373   -1.98553932985054
H         5.85936304828795    0.55125733938516    2.98048704736880
H         6.16819621084899   -1.97642295331314    1.95910754802560
H         7.51674208989854   -1.70495216608585    3.03448298222663
H         8.31930424559731   -1.93186358237056    0.34550174925450
H         7.60709842495340    0.24372611771213   -0.75929224188038
H         6.00387632265856   -2.32012329042662   -0.53013759863112
H         6.15370660762509   -1.29726696151232   -1.91455268144825
H         7.96943695313069    1.85563333535589    2.02287290816597
H         8.42689956909345    0.84436576543985    3.38678018142479
