30
 energy: -45.977320472630 gnorm: 0.122912823493 xtb: 6.4.1 (79825abcba525fcdf90b791dcacef51065a7a4e7)
C         1.10873758125054   -0.27757743721106    0.21116784389578
C         2.58742957553640   -0.11817375010620    0.13477309771044
C         3.41728545528633   -0.70891573141215   -0.80364547358911
N         2.95656912628646   -1.27591912956134   -1.93453914595872
C         4.75072195089647   -0.53247963022496   -0.39264977187245
C         4.89569377850438    0.39556723012129    0.60281618338268
S         3.42983290810955    0.93060046774483    1.22789010525761
N         6.20735101303391    0.68269107863170    0.87477355979198
C         6.62529325587030    0.24679570371850    2.24027255113763
C         6.78835369726378   -1.28348253936993    2.13356951428808
C         7.74868736078784   -1.21693945045411    0.94881070112108
C         7.04701352661289   -0.24227748794503   -0.01182048031555
C         6.04444332815549   -0.90655533635337   -1.00780757635506
C         8.80865992420932   -0.25281893174401    1.42901292312539
O         9.99417712886458   -0.11831935791268    1.16427627156738
C         8.09925338452268    0.64266731740903    2.41816515862806
H         0.86712203129925   -0.68585452377621    1.19705633474763
H         0.84096172601901   -1.12628838249133   -0.42602156661225
H         0.44541364842300    0.58246339744401    0.06882142841136
H         1.95555005216280   -1.41038491396607   -2.03650510307388
H         3.35356119197187   -2.16085235875787   -2.23539370840918
H         5.89629423738329    0.59536660985923    2.97597927331136
H         5.83747069091211   -1.81412087217389    2.02065204249074
H         7.25594553876595   -1.77737785533528    2.99275743880304
H         8.10209022651787   -2.10342257427753    0.42587274799293
H         7.72835363172574    0.42058067188064   -0.55998722252178
H         6.16743414623993   -1.99087411185951   -1.09824697637994
H         6.09239658384240   -0.31633453347725   -1.92938311513691
H         8.29923397975866    1.69673229133582    2.21746971712855
H         8.44210733811894    0.47056192147674    3.44184073322167
