30
 energy: -45.984774789699 gnorm: 0.112132738637 xtb: 6.4.1 (79825abcba525fcdf90b791dcacef51065a7a4e7)
C         1.02671506210175   -0.04389028436474    0.05228965566898
C         2.51515723740392   -0.01397849296835    0.01459509987576
C         3.37842882882782   -0.77424499225915   -0.75678243107968
N         3.01846000619332   -1.46873735446330   -1.85258154260125
C         4.69459647245908   -0.66112760194487   -0.27407419395656
C         4.86780050395641    0.29231633974797    0.69245841898115
S         3.38808647786340    0.91884511589367    1.18605153483801
N         6.19727855113103    0.55095187078267    0.89847155582548
C         6.66451386944649    0.13848779475691    2.25524439540826
C         6.94795286866598   -1.37007409471208    2.10152677201194
C         7.92005184291747   -1.11592742375404    0.95228561944424
C         7.02470479009591   -0.34290571181246   -0.03052436636156
C         5.97003951540764   -1.21507574184650   -0.78245718175929
C         8.85555880568745   -0.05937148972922    1.49282300749877
O         9.94796007934575    0.20494747469384    1.01280049121275
C         8.05799715463004    0.73857284499249    2.49818645394318
H         0.65731235332013   -1.03637077301908    0.32718689484326
H         0.56309666239232    0.24512323870428   -0.89615838712098
H         0.69498845743891    0.73581947787785    0.74650973127570
H         2.02830469044773   -1.36511700019260   -2.05100674436540
H         3.61721252328797   -1.64378002024585   -2.65387954144942
H         5.92861752989069    0.47472007863752    2.98982594650534
H         6.10410826736126   -1.98593707428690    1.77419671425768
H         7.39920949623019   -1.81213095753816    2.99692153931603
H         8.43811250602145   -1.99818682195874    0.58155455433261
H         7.60965115455652    0.30480743338663   -0.69565404568747
H         6.00173185034644   -2.26372560285209   -0.46879766130912
H         6.09399870638541   -1.09525280345149   -1.86423265479820
H         8.07590194906961    1.82595958000007    2.40548599006963
H         8.40390888493793    0.45152573206294    3.49469526620658
