30
 energy: -45.978471518652 gnorm: 0.108259782111 xtb: 6.4.1 (79825abcba525fcdf90b791dcacef51065a7a4e7)
C         1.07492062180515   -0.18719978083513    0.17879816430875
C         2.56411531884719   -0.18192719841517    0.18565774709458
C         3.40030891213906   -0.70209174519590   -0.78823926779553
N         3.00146599567906   -1.22575634605295   -1.96270620359161
C         4.74831155822923   -0.36813995987175   -0.56583175207850
C         4.89414716016023    0.31587973681173    0.61064148866873
S         3.45197041586279    0.70355012531168    1.38236938927119
N         6.17759710969618    0.60070542279986    0.99596753069874
C         6.59140951627107    0.10498360348284    2.34217968262101
C         6.79575801931304   -1.39708880913418    2.05626728137119
C         7.78312609312879   -1.12001933684765    0.92548924513913
C         7.04999276202733   -0.14933505825362   -0.01547405176794
C         6.08201751016129   -0.74734296027746   -1.08496590282123
C         8.81437693149819   -0.17578825278126    1.49873766626211
O         9.96046416660973   -0.11882370762655    1.07818355213529
C         8.02687036155122    0.62740880085910    2.50783790995471
H         0.74153868014504   -0.44211924165628   -0.83160617110834
H         0.74781055304703    0.81787329224230    0.46314238869705
H         0.54810141958148   -0.80462762032643    0.91444466055558
H         2.07852828794968   -1.64760096761643   -1.93531301073275
H         3.67112624709030   -1.72286684717154   -2.54206730330078
H         5.82693647279577    0.41978334411048    3.05680385918440
H         5.87205339387995   -1.87880869799453    1.71978310609945
H         7.17211723396190   -1.99879063635577    2.89118479539902
H         8.21682434792381   -1.94794534478335    0.36812548100626
H         7.64903534228272    0.55116932512730   -0.61090133493852
H         5.99481029363601   -1.81097461406930   -1.33019199018581
H         6.27021003535940   -0.27828077644811   -2.05683308924106
H         8.23502404919810    1.69024427068391    2.37227731761504
H         8.45309353019088    0.54534883175400    3.51117272684934
