30
 energy: -45.977876655533 gnorm: 0.113925260534 xtb: 6.4.1 (79825abcba525fcdf90b791dcacef51065a7a4e7)
C         1.10223334758698    0.10210800917735   -0.35210955426324
C         2.55424843778097   -0.11471287024770   -0.10227648602069
C         3.22208252514486   -1.32174772562490   -0.22609386637225
N         2.51640526461121   -2.46537712821621   -0.30858182865107
C         4.60019334790813   -1.12204762275221   -0.02853255720297
C         4.93808727405125    0.19049568577844    0.16198788393067
S         3.62237456809572    1.23502637517740    0.10213986257803
N         6.26832600656336    0.43814846937076    0.37641420874227
C         6.87832926418020    1.18571157410299    1.51584978937217
C         6.93529170824568    0.10011736667178    2.61036623445401
C         7.71999624789193   -0.89658607354186    1.76116471911130
C         6.88429238140210   -0.96118798618426    0.47176562436781
C         5.74742820116731   -2.01122190082951    0.26350862308266
C         8.93999928028723   -0.09439236667705    1.37162364392255
O        10.08644080830035   -0.45303701500543    1.14651807747452
C         8.35731593027039    1.27493801057212    1.10896446748806
H         0.64082767435698   -0.64302743198314    0.30281207551118
H         0.82375000544942   -0.02625261340171   -1.40282126479840
H         0.69342594374668    1.04630540753097    0.02378823278585
H         1.56283609829995   -2.37194432484677   -0.64398225085325
H         3.04411623877049   -3.30444722659067   -0.52927501187291
H         6.41313865597641    2.15477337565141    1.71263026657956
H         5.98520347759022   -0.20643492351704    3.05965894154689
H         7.55375740467488    0.52346666297041    3.40977486535764
H         7.82686608802681   -1.89784952836109    2.17379088329090
H         7.52636685493502   -1.06498833471550   -0.41200918472459
H         5.40451078707441   -2.47345865212536    1.19506541614918
H         5.96381676586311   -2.85414281408388   -0.40178974694118
H         8.47860333807670    1.62476931712995    0.08220680785410
H         8.90835688088458    2.03474957320386    1.66942949291474
