30
 energy: -45.975387589007 gnorm: 0.126361124587 xtb: 6.4.1 (79825abcba525fcdf90b791dcacef51065a7a4e7)
C         1.12994809099616    0.20947217240196   -0.47830865808996
C         2.56366383151416   -0.07388879201568   -0.19205450080047
C         3.18779540640630   -1.30160749370037   -0.04565487664967
N         2.52268454424772   -2.46776290201415    0.05623716831488
C         4.57697533163444   -1.11811136095225    0.07521018391588
C         4.96675537663130    0.19251121609628    0.13504544854807
S         3.66424662552154    1.24866300360544    0.01782589605800
N         6.31037725650643    0.41399566746682    0.28494713190618
C         6.82831699884943    1.04960689896815    1.53274711189854
C         6.90959380865716   -0.10945021518889    2.54749163080449
C         7.78080584626130   -0.94023829392801    1.60882080079732
C         6.93925360974503   -0.98234542168684    0.32229788835553
C         5.75358992322561   -1.99682300628073    0.26365304225609
C         8.88706817761567    0.03831413362770    1.28900337172889
O        10.02696224291092   -0.36696233142008    1.11574293001240
C         8.30622248308005    1.43169370174912    1.35746552473038
H         0.64093882936352    0.67247290877230    0.38398168425348
H         0.55815962652671   -0.66275975735744   -0.81041397065462
H         0.94279731549894    1.03091841513951   -1.17840295951024
H         1.70259988591889   -2.47246636031368   -0.54205733671846
H         3.13112914714472   -3.27271817063377   -0.05806578003293
H         6.15403960644612    1.89684042712489    1.68022922975976
H         5.99075369932732   -0.69570381338138    2.65018272123594
H         7.34509919901707    0.02983853414111    3.54333916132479
H         8.05839824380328   -1.92561753927738    1.97784684647374
H         7.69251204217141   -1.24516087230847   -0.43110892911432
H         5.62781463901794   -2.52877807162136    1.21247210659689
H         5.78303122850861   -2.68349896437629   -0.58932464030193
H         8.41991213035278    1.92387989592008    0.38991641333616
H         8.66006359764691    1.91044160432939    2.27435030211984
