30
 energy: -45.973497028710 gnorm: 0.118375959911 xtb: 6.4.1 (79825abcba525fcdf90b791dcacef51065a7a4e7)
C         1.09183750243504    0.15340702192012   -0.35993785662577
C         2.54661334754470   -0.07615317631427   -0.13924564745102
C         3.19570170665850   -1.27526201164011    0.10383577484036
N         2.55088683366933   -2.43936469500364    0.30816785466936
C         4.59146564977536   -1.10270025980892    0.09097096385417
C         4.98433248378404    0.20513363646414   -0.00104223582088
S         3.68677275327292    1.20958809074433   -0.36592038880020
N         6.32241756936705    0.36383224039650    0.24632124510068
C         6.84097334023130    1.16041120844403    1.39776810472730
C         6.85688871789086    0.16217850378563    2.57377997666663
C         7.68035047870872   -0.86931827524042    1.80680716153417
C         6.93313909403537   -1.02288746322379    0.47143603810378
C         5.73620970163864   -2.01389344349852    0.31758693333735
C         8.90339393082917   -0.05034243418050    1.46459717383971
O        10.03663282616654   -0.47036278848685    1.28299545726210
C         8.34178907891111    1.30484727332520    1.10178006238628
H         0.44439867902313   -0.04073534160414    0.50039701310048
H         0.69030243414391   -0.51129320142974   -1.13127936522308
H         0.97341535732571    1.18245903910539   -0.71625163425118
H         1.53641201737088   -2.47477576454458    0.31837540880816
H         2.95752948529091   -3.23690579819990   -0.17119935950248
H         6.43625400371659    2.16529986589729    1.54131837106506
H         5.94254357745457   -0.33738670211728    2.90980595628297
H         7.38739661730994    0.42956746856617    3.49456394448157
H         7.93983669712409   -1.87015333530444    2.14622740885103
H         7.73246830929031   -1.15579247919869   -0.26849714877393
H         5.56027656251144   -2.77172237764825    1.08816858083306
H         5.77477716287576   -2.68059334888679   -0.55073637951310
H         8.55308842420337    1.47188886281209    0.04405913369422
H         8.80060175778802    2.08153045916392    1.71930329171088
