30
 energy: -45.980489983928 gnorm: 0.114151190528 xtb: 6.4.1 (79825abcba525fcdf90b791dcacef51065a7a4e7)
C         1.17308225072059    0.17422824628598   -0.53868656187266
C         2.55778575809036   -0.09328240788037   -0.06034576015903
C         3.23243690583182   -1.30277555714671   -0.07578589247174
N         2.54814105298542   -2.40403372510750   -0.43861159925125
C         4.61203392756630   -1.13512175604601    0.14032586332201
C         4.95131915241607    0.18724565253083    0.23764096103846
S         3.64792389926069    1.24223700058900    0.11982705346771
N         6.30171081444794    0.40535027685302    0.31326065371405
C         6.77859665323891    1.05996778992047    1.56758269962950
C         6.89479130508371   -0.05235498617883    2.63010921294884
C         7.77675643835408   -0.93148756696834    1.74716777633326
C         6.98130384507372   -0.96244401154771    0.43133296737605
C         5.79814456158769   -1.98115867962953    0.40382127883294
C         8.86418042093603   -0.00419909745355    1.25593508356603
O         9.97999646852347   -0.40700516823602    0.96211798301063
C         8.24047027473898    1.37151457314303    1.21151713309342
H         0.37252174560264   -0.25484269439855    0.07126866287764
H         0.88410590029157   -0.36217976054288   -1.44796299910246
H         1.06087868911648    1.25459195198141   -0.68065834314711
H         1.54530814156570   -2.28205162984881   -0.33879275245123
H         2.89480606717634   -3.32345480330252   -0.18226957623645
H         6.24286989683223    1.99362780380565    1.75594789139154
H         5.93245399911768   -0.54774564729930    2.79442868499267
H         7.34984810744822    0.24124084543097    3.58273894010556
H         8.09757798879394   -1.90511735278277    2.11230965146408
H         7.72049519810501   -1.16014695503761   -0.35517942674311
H         5.65777762758019   -2.55329279194246    1.32686673396424
H         5.96309465636015   -2.67464762433141   -0.42793958481738
H         8.35112413933712    1.78063662589066    0.20568477383653
H         8.80147516479540    1.99705142026457    1.91084391522996
