30
 energy: -45.977600969220 gnorm: 0.126946968362 xtb: 6.4.1 (79825abcba525fcdf90b791dcacef51065a7a4e7)
C         1.08473171453137    0.17182696236635   -0.35041348435244
C         2.54304475304390   -0.05226635370379   -0.14822308901300
C         3.18973074161500   -1.27595803604609   -0.09682111875863
N         2.57203752177007   -2.46446103903560    0.03951877083930
C         4.58438071753356   -1.11523880068995   -0.01184577577228
C         4.99319994244947    0.18831240036713    0.07098758629710
S         3.69268051656239    1.24302159397483   -0.07721425337221
N         6.33141839488742    0.45479402956344    0.19348053811117
C         6.82076522138350    1.08501150611701    1.45547642017197
C         6.76688961508240   -0.12375397532023    2.41240336401884
C         7.73515309783722   -0.96902327903213    1.58880892253959
C         6.98471571890576   -0.92975869932868    0.24700923067650
C         5.80366443495247   -1.94394513877836    0.12475501262508
C         8.90916375323823   -0.01784696612417    1.56376913835478
O        10.02994865644377   -0.43975648315810    1.31992444520498
C         8.33000916518628    1.36890446744981    1.40541563113097
H         0.45302708046915   -0.51924159264794    0.21564117772278
H         0.88332067938432    0.14846319017976   -1.42601203736910
H         0.86875445798922    1.18422553639156    0.00782430600866
H         1.56424255280182   -2.37063752066223   -0.03835120104197
H         2.99087370009937   -3.24308187037519    0.53906741102275
H         6.11715879345020    1.88124031484287    1.71074746052149
H         5.77480528883766   -0.58402521908729    2.46164722897947
H         7.03976558155310    0.02613103699807    3.46304687772353
H         7.95632539508119   -1.96715035796950    1.96168312071672
H         7.71440429585906   -1.01942403500656   -0.56761139526349
H         5.74878154070181   -2.55524102378958    1.03159482084691
H         6.01317955430117   -2.67704016181364   -0.66177959971866
H         8.58964360783959    1.83779759605137    0.45459858313741
H         8.76043934221171    2.05627897623366    2.13844150504258
