30
 energy: -45.977471701511 gnorm: 0.125127706500 xtb: 6.4.1 (79825abcba525fcdf90b791dcacef51065a7a4e7)
C         1.06087659837292   -0.31937613229511    0.27103858115160
C         2.52044246342972   -0.06092754587158    0.12734616173425
C         3.34620992720638   -0.63511106699488   -0.82485531579400
N         2.93253319814079   -1.19860490347661   -1.97551561820716
C         4.70008323378297   -0.34839183436237   -0.57401833508750
C         4.92404501641242    0.40917155205505    0.54364847481831
S         3.46935010512467    0.82339689329284    1.27713748762853
N         6.21453310039830    0.66788158485431    0.92385267710862
C         6.58696929770830    0.07649564931870    2.24325479343170
C         6.86691201745784   -1.41410692689969    1.96136513519564
C         7.85983825100939   -1.04723603065345    0.86144449533218
C         7.00957542017982   -0.17546549463495   -0.07780713903756
C         6.00359025382034   -0.85541830251115   -1.05967290831111
C         8.84501550580949   -0.15847523478190    1.58476628643087
O         9.99915262966732    0.00915777401966    1.21939887008620
C         8.00657794495804    0.48824064895138    2.66289263881450
H         0.51771963685480   -0.44663985496060   -0.67014622372668
H         0.76117409154189    0.63884368801675    0.70694877272470
H         0.82411587922531   -1.05198835902742    1.05024013243547
H         1.95588099103967   -1.47548363739625   -1.97794821006211
H         3.50534273523291   -1.91023126104508   -2.41902452268738
H         5.83408457239074    0.19891920384677    3.02580363575011
H         6.00737358074523   -1.99771566897704    1.61625587812695
H         7.35544792685664   -1.90008586765975    2.81338375998043
H         8.36821838404190   -1.83769431061625    0.31286873361098
H         7.71365394408382    0.48834086397691   -0.59523018358012
H         6.05957234561376   -1.94767371045825   -1.11350007730651
H         6.27098845744042   -0.64759553343970   -2.10143559303852
H         8.05453228511288    1.57866197146226    2.66052852801194
H         8.35299246413612    0.17980008355491    3.65281293005081
