30
 energy: -45.972736487973 gnorm: 0.130653037353 xtb: 6.4.1 (79825abcba525fcdf90b791dcacef51065a7a4e7)
C         1.11390062254560    0.25767950952384   -0.47813340541610
C         2.53702463030525   -0.07304865610894   -0.18984077618398
C         3.16689369875405   -1.30503892472023   -0.12875706060076
N         2.54389312892909   -2.49592891428731   -0.04923219466873
C         4.55515218236687   -1.16067788203856    0.04444320296979
C         4.96777883875038    0.14323884538535    0.09717545331717
S         3.68090776420730    1.21827721240464   -0.02106756415584
N         6.29063592397565    0.38149995958613    0.36198936033553
C         6.80857424467133    1.09735335770654    1.56555149712586
C         6.84086388553230   -0.06344116000895    2.58105098844743
C         7.76676032591541   -0.93159240330162    1.73290514264918
C         6.94940346745941   -0.99972263003321    0.43197838709119
C         5.74075833295871   -1.98637122744332    0.36791704862188
C         8.92414304825960   -0.05808114988639    1.30733762312054
O        10.08273533519086   -0.30407390069268    1.00604348952368
C         8.28931801948660    1.31013130515710    1.21477807026087
H         0.51472598284191   -0.23623936874470    0.29263132039023
H         0.79693541703078   -0.15521393001189   -1.44098157064642
H         1.01308681773664    1.33894835001340   -0.33451712369122
H         1.56820412339990   -2.35911988553242   -0.29383705081433
H         2.97388608599092   -3.29887635223740   -0.49823604273167
H         6.26983587682152    2.00665507473860    1.84328696610668
H         5.91816445653799   -0.54734892924298    2.91715353765699
H         7.30397607580411    0.33497131699627    3.49076149220759
H         8.12463944974954   -1.85967662124314    2.17425787910657
H         7.48783166685692   -1.11491917626705   -0.51718802999121
H         5.74758233693008   -2.60257003019667    1.27307212479724
H         5.99950553249343   -2.71794653526591   -0.40526407582914
H         8.35370191740490    2.06063203412851    0.42488742001689
H         8.78210004594768    1.83941054679463    2.03460130843122
