30
 energy: -45.971828475431 gnorm: 0.129285386337 xtb: 6.4.1 (79825abcba525fcdf90b791dcacef51065a7a4e7)
C         1.14584815273469    0.15715780627171   -0.06386222993130
C         2.62771601504865    0.02834638533289   -0.13632585943425
C         3.23930624116577   -1.20094181646259   -0.31818907316503
N         2.77125489977695   -2.43537982835306   -0.58231714730402
C         4.62189026271442   -1.03026896483690   -0.12471486543987
C         5.00281853943930    0.24532175664879    0.19309362764232
S         3.69785538874061    1.28670253325080    0.38885703302224
N         6.34388415164792    0.49720354546757    0.31534011627174
C         6.68478023204009    1.01492762479622    1.67365511129261
C         6.74139631160737   -0.21810839805001    2.59893481556860
C         7.63475175662940   -1.03347614824816    1.66758436856527
C         6.98385657204713   -0.89416949210525    0.28120292923984
C         5.82661787708464   -1.88791217703798   -0.05297733655225
C         8.80465298476942   -0.13322776240440    1.34424500573117
O         9.94527749132417   -0.42769217710299    1.01883278129085
C         8.19156600587949    1.24167662320875    1.47591767474539
H         0.80778045851880    1.12550118860838   -0.44473715268710
H         0.80141576777889    0.06217271397463    0.97072401168198
H         0.67819992472247   -0.49608685530705   -0.80851511567706
H         1.87832084585274   -2.59655949339523   -1.03751731253337
H         3.47369954154035   -2.97708495557180   -1.07663492373928
H         5.90831375616822    1.71014420350488    2.00225721782386
H         5.77572627455089   -0.71890813712364    2.72216990690166
H         7.10635295857227    0.16424972285192    3.55882414043295
H         7.84114830916780   -2.08734933540238    1.84354398277699
H         7.70166108917406   -0.93063376753299   -0.54796477954699
H         5.75111225644260   -2.78269973190663    0.57368635055462
H         6.00728043473124   -2.29207059579615   -1.05496466353127
H         8.44243637643406    1.88304348209034    0.62913761103155
H         8.57860602921176    1.77690477701354    2.34701561707760
