30
 energy: -45.977056131276 gnorm: 0.107837913033 xtb: 6.4.1 (79825abcba525fcdf90b791dcacef51065a7a4e7)
C         1.09097800627265   -0.04229023748024    0.10197492664120
C         2.57904418050766   -0.07658433159315    0.14950042601093
C         3.41155068274302   -0.69487425025363   -0.76860456285473
N         2.95798614922045   -1.48795188964710   -1.75753324760291
C         4.76429574212598   -0.39854275760384   -0.52290456703591
C         4.93148176347883    0.38662609704350    0.58560748254139
S         3.49667599210382    0.67847435426146    1.41136957720256
N         6.21122881327049    0.62798733106453    1.01085781462188
C         6.55805395387204   -0.01301128785990    2.31396988784678
C         6.82957645731025   -1.48624461653450    1.94575142933390
C         7.83159932436659   -1.14233405850804    0.84666186429344
C         7.02193969073974   -0.16346228635304   -0.02016320531246
C         6.07049121572520   -0.86715711029363   -1.03896728007000
C         8.74712594631493   -0.12564702035821    1.48839611759763
O         9.91047996602649    0.08634199414195    1.17969763496864
C         7.93413900848453    0.64376009392929    2.50360069526962
H         0.76401463679977   -0.08956214009852   -0.94105177148433
H         0.59056391681627    0.86491623533967    0.45494331151014
H         0.58094275382295   -0.74497917306301    0.76982496440095
H         2.11143385834454   -1.09374695971499   -2.15561486520363
H         3.57473961545036   -1.84309318154618   -2.48190387895048
H         5.80566481012093    0.23376134169571    3.06710962821955
H         5.95956059531239   -2.04899436868466    1.59235221825876
H         7.30934940828849   -1.99743388143087    2.78794027529169
H         8.34961179830083   -1.87156176401515    0.22690381088360
H         7.60379806620504    0.48988735479585   -0.68248271097324
H         6.18938068448922   -1.94896443800219   -0.91808953142749
H         6.36391743304617   -0.50129899147224   -2.02892206775636
H         7.92920352463100    1.69061805467767    2.19475135226099
H         8.38645866535742    0.55312765672482    3.49469779986903
