30
 energy: -45.976146483228 gnorm: 0.118004963484 xtb: 6.4.1 (79825abcba525fcdf90b791dcacef51065a7a4e7)
C         1.00601250251998    0.02829417520404    0.03877435904667
C         2.49393679833191    0.05552374573867   -0.01704268620929
C         3.26029169360229   -0.96126289157792   -0.56212193700960
N         2.81690700075079   -2.08405333996255   -1.15829683000222
C         4.62001573636235   -0.80439240848707   -0.23863743183341
C         4.92625620738519    0.37326058718483    0.38793297007800
S         3.51413572149952    1.16827267107814    0.83469642318193
N         6.26358223517023    0.59917726754950    0.58123680083244
C         6.72367059621188    0.63758702946465    2.00113517131406
C         6.90763388002213   -0.86000067206147    2.32224937681004
C         7.81610933810189   -1.13293217668012    1.12621304397510
C         6.97273853209809   -0.60490355156726   -0.04640617637626
C         5.85208394339200   -1.54503451578456   -0.59293103810042
C         8.92937556241800   -0.15376383133841    1.41867168270069
O        10.14078522687575   -0.21490941298898    1.56825282470907
C         8.19628390904369    1.06866217192738    1.92049506015989
H         0.68440871531177   -0.04661846056217    1.08184840937558
H         0.59860390655234   -0.81669414917914   -0.52517376879496
H         0.50738888902096    0.88077925389101   -0.43511914675843
H         1.98591759675692   -1.86874189135804   -1.70015924309957
H         3.37596048278631   -2.78075408667948   -1.64129814055187
H         5.97814850614505    1.14558755824473    2.61785058576888
H         5.97077115758807   -1.42502565447290    2.28299513263883
H         7.40272550885039   -0.94707944569732    3.29594346063637
H         8.10503392431753   -2.16157855918729    0.91976880941478
H         7.64102837014098   -0.24931911216966   -0.84078672516030
H         5.82062997492307   -2.55006153994206   -0.15935917365482
H         5.89776160616366   -1.52327030906780   -1.68718944185041
H         8.28735623078131    1.94195969378088    1.27212700229523
H         8.71022482219393    1.31775591270642    2.85264195277554
