30
 energy: -45.969765573878 gnorm: 0.120732838531 xtb: 6.4.1 (79825abcba525fcdf90b791dcacef51065a7a4e7)
C         0.99278886645621    0.10722197255372   -0.12083830304223
C         2.45976199120557   -0.05514353636192    0.07766359384381
C         3.32546418628230   -0.77571092826290   -0.72831942745615
N         2.99642356052420   -1.34235655972813   -1.90446477432625
C         4.65393509398819   -0.69956905269415   -0.27283341680865
C         4.79586908346952    0.03837801306766    0.87107616596842
S         3.35102531905263    0.77732618187845    1.30937759301202
N         6.05329749684868    0.50683309142377    1.14724500216827
C         6.72211249214811   -0.01026301967621    2.37792209306787
C         7.09556449162082   -1.44319297952197    1.94552056637760
C         7.91833271020966   -0.97218619451221    0.74905609159852
C         6.88351758634858   -0.10391582538159    0.01394480611409
C         5.94563495361779   -0.86221201586239   -0.97790468409453
C         8.93022532694915   -0.02175923091582    1.34607058534388
O        10.15149773604251   -0.03259247184775    1.30131550134438
C         8.12120011054998    0.62096781875330    2.44877432895207
H         0.77150878663283    0.69592991209467   -1.01610500286414
H         0.48531087257237    0.58686414121322    0.72203416851332
H         0.56034983395920   -0.89921816811186   -0.12330681298322
H         1.99454628970833   -1.29630249772617   -2.06143050848286
H         3.22450468808904   -2.31138225410641   -2.10494218390568
H         6.22208483175564    0.17127875781319    3.33250082122754
H         6.23121834338072   -2.01495530316150    1.59267574514997
H         7.63968759274244   -2.07149172443655    2.65962793993866
H         8.35303686730455   -1.62738017048930   -0.00324914320048
H         7.41311337927303    0.78103929828067   -0.36085484539922
H         6.25323848421022   -1.89987764044823   -1.14428784004204
H         6.00394551949258   -0.38724206811402   -1.96328025632837
H         8.11370058838989    1.71106837740200    2.39447518230205
H         8.65176012034762    0.44546482586374    3.38834101552811
