30
 energy: -45.977259327301 gnorm: 0.124808250925 xtb: 6.4.1 (79825abcba525fcdf90b791dcacef51065a7a4e7)
C         1.10320197845469    0.14389019396920   -0.26499404783517
C         2.56836960677491   -0.09073387851194   -0.13845922957056
C         3.24723146628119   -1.29796445908301   -0.14113818564565
N         2.60244647733266   -2.47979069211496   -0.15569682243832
C         4.60870908970633   -1.09227928015496    0.14551898640746
C         4.94236988801061    0.23463161406876    0.18042200545535
S         3.63200750738852    1.27128169141690   -0.00405864287163
N         6.29840316008360    0.42675165876378    0.14711631149619
C         6.85974226721183    1.09087454665525    1.36083258321741
C         6.80392438148784    0.02379558796279    2.47346576918136
C         7.63764783117340   -0.93023432160513    1.62196455719076
C         6.96808626702514   -0.94801675606163    0.23758907473511
C         5.79506578316115   -1.97729136056615    0.18264277409075
C         8.86628051662195   -0.07331193593142    1.42243978147989
O        10.04114159589612   -0.40521679427968    1.47871840192897
C         8.36880973943555    1.33773211413151    1.21018304603731
H         0.57726719168863   -0.26725572719153    0.60183696375554
H         0.72229192953665   -0.35715777295200   -1.16047324339527
H         0.90910406071896    1.22197046890917   -0.26552962467675
H         1.59039848262238   -2.51378973272027   -0.22725249734110
H         3.02114793168959   -3.38482376696529    0.03620737289089
H         6.17910144999234    1.91850679781539    1.57521206003024
H         5.83946396435072   -0.40789684500419    2.75975868673805
H         7.32805598127345    0.28474219300236    3.39973329969742
H         7.85606832969058   -1.81984704826683    2.20940961989042
H         7.67310435993440   -1.02441611520520   -0.59979057970833
H         5.79311557058175   -2.77458302629500    0.93322617158419
H         5.85053697717628   -2.65622871707143   -0.67522003748439
H         8.70825693652185    1.70657774159416    0.24062006603853
H         8.80549753514037    1.95510165479840    1.99963817657219
