30
 energy: -45.978339900607 gnorm: 0.116283038006 xtb: 6.4.1 (79825abcba525fcdf90b791dcacef51065a7a4e7)
C         0.99115648297161    0.06307148566872   -0.23464282040932
C         2.46300488241172    0.00002345818586   -0.01678291564261
C         3.25822793532091   -0.97829127533475   -0.59018229932821
N         2.95969550734906   -1.87169635775474   -1.55214831546188
C         4.59555551442562   -0.83052356522015   -0.18052429317388
C         4.82170722103595    0.23544440091521    0.64761094293874
S         3.37249966138111    0.94844066708628    1.11361505342628
N         6.12286577524394    0.61721001856518    0.84276998777187
C         6.79382353640794    0.52728380610954    2.17355808577865
C         7.07492611342076   -0.97823518949343    2.35827312743593
C         7.86082346742398   -1.04602857967123    1.05133335133410
C         6.88897706751940   -0.43131685672097    0.03017300624999
C         5.87837668150422   -1.47094450628255   -0.54970936660239
C         8.95109548918916   -0.05440683443315    1.38548544435992
O        10.14442689151143   -0.26985025125657    1.23326529660524
C         8.21485634745336    1.09485734063056    2.03411414495175
H         0.40155100316819   -0.33354564743158    0.59728542455271
H         0.61304437621482   -0.37604949695808   -1.16320543229818
H         0.64671741641096    1.06830736307050   -0.50071411036522
H         2.03185724079874   -1.73536995886420   -1.94079796159802
H         3.65176160100949   -1.92432527710442   -2.29342943617958
H         6.20018801753657    1.00065640157778    2.95951030228124
H         6.20329159427315   -1.63528600035857    2.27434825036817
H         7.55533318336866   -1.29899956138916    3.28945402793449
H         8.30220459290573   -1.99653674086041    0.75820035160417
H         7.37734998651272    0.02994165968601   -0.83748160655439
H         5.94460791767162   -2.45719058791981   -0.07855618685515
H         5.93586942559433   -1.58307726139086   -1.63786487772776
H         8.26100745304477    1.99354372302845    1.41641135960304
H         8.69013403374330    1.25032393207895    3.00623658777371
