30
 energy: -45.975813195832 gnorm: 0.115711303516 xtb: 6.4.1 (79825abcba525fcdf90b791dcacef51065a7a4e7)
C         1.00308594246566    0.08392567034588    0.08880300054692
C         2.47865881997175   -0.11094148748845    0.03893148936480
C         3.31662750317237   -0.75412260646765   -0.85683232381071
N         2.93884289214248   -1.45408615391004   -1.94311161640904
C         4.64398868140156   -0.56666481168828   -0.43130686565928
C         4.79473843765533    0.12090808513655    0.74247261995909
S         3.33785654772283    0.79510238305233    1.24115413037281
N         6.07197010314798    0.41502539872179    1.14124559599762
C         6.72820703751779   -0.05233574520840    2.39830352782848
C         7.13168798538755   -1.48874517462767    2.00631268203211
C         7.93094395449917   -1.02121304403780    0.79267114709459
C         6.95369603663486   -0.12664793381166    0.01173315615551
C         5.99075529783523   -0.87516933363663   -0.96338899230877
C         8.85578389159319   -0.00962266619942    1.42908326368663
O        10.04945665886276    0.15392138757877    1.22408243570940
C         8.07963026400110    0.66574623669434    2.53589751965643
H         0.61365752949118    0.12688011658858   -0.93273740328664
H         0.87190010048947    1.11206393065683    0.44057922007864
H         0.31994979818824   -0.53155750993659    0.68414898371138
H         2.01170185906463   -1.40760303444867   -2.35392315424930
H         3.55331032954477   -2.11848659811861   -2.40379025651513
H         6.07659353889768    0.04813269573520    3.26980313696064
H         6.28506878845919   -2.17139240173012    1.88087510389469
H         7.73783998394522   -2.00435109394904    2.75964454345964
H         8.45450532851606   -1.71458358755959    0.13743775863143
H         7.48778365812466    0.72050403937447   -0.43679332208555
H         6.24835277466903   -1.93940487388543   -0.95341479560366
H         6.16196313207941   -0.48355728124651   -1.97199667974686
H         8.07778449576967    1.75625838263846    2.58176386264866
H         8.47718985776611    0.18746849817174    3.43494009694859
