30
 energy: -45.976066606926 gnorm: 0.118952499024 xtb: 6.4.1 (79825abcba525fcdf90b791dcacef51065a7a4e7)
C         1.24571604910857    0.30803651169346   -0.55080889696860
C         2.66390542448854   -0.07687391226990   -0.30923376957014
C         3.21204822922240   -1.33549239723008   -0.12569838719579
N         2.47421926045205   -2.46126291614547   -0.09533351223350
C         4.56769250465992   -1.20153885845552    0.22413741275852
C         4.99672681222326    0.09600706703582    0.29859810002473
S         3.76669464182846    1.21302358997895    0.04360596991206
N         6.33559450995967    0.38073497211119    0.35524532591603
C         6.77093999631084    1.03404614606047    1.62525587731980
C         6.86683302259570   -0.14204313035729    2.61890787165709
C         7.78492594916683   -0.92109131866956    1.68055214528585
C         6.91272391759224   -1.03682617790938    0.41920626338808
C         5.74981540347819   -2.07839045315841    0.38470978057435
C         8.84651361184637    0.09100431370497    1.31674113742015
O         9.92317128138369   -0.21513211871782    0.82611356061859
C         8.21242699392747    1.46266958560823    1.31011185739139
H         0.62548936919591    0.20508946423847    0.34460449401257
H         0.84658077193009   -0.40107126046233   -1.28284831783174
H         1.18464448168109    1.30076842861505   -1.00981322196649
H         1.49191783528413   -2.32701465592874    0.12279168633209
H         2.68162593057584   -3.16327835792613   -0.79916572021384
H         6.04844791114463    1.81633774774675    1.87067523126296
H         5.96954349880655   -0.74695640517925    2.78461039622096
H         7.36885187881737    0.20686645669881    3.52831304529708
H         8.09713012747198   -1.90326283837360    2.02994830013306
H         7.62448534285042   -1.22421557118593   -0.39465671202995
H         5.77333626959836   -2.80683534181170    1.20194172542011
H         5.89540843026199   -2.72761378062415   -0.48550474915512
H         8.25656188271796    1.93385950138277    0.32656925971747
H         8.51769962605467    2.18653075088932    2.07031868141756
