30
 energy: -45.976214910277 gnorm: 0.115948218210 xtb: 6.4.1 (79825abcba525fcdf90b791dcacef51065a7a4e7)
C         1.00073621437740    0.30554989980416   -0.04435790559677
C         2.43283389471762   -0.09849265040413    0.01582134815493
C         3.27219660742010   -1.03561230769607   -0.56343960831433
N         2.78961449098034   -2.07576781844521   -1.26903431044221
C         4.63495319380756   -0.84729785436382   -0.27098073098891
C         4.83263283402977    0.19133914818009    0.59815458283430
S         3.41680722057145    1.06350978057404    0.84408600554557
N         6.15535284647726    0.51859443804396    0.74014524552220
C         6.74047532950563    0.55229749920423    2.11337638989548
C         7.04071957917516   -0.94728491003028    2.31544502942620
C         7.91515989336442   -1.05154595076886    1.06852644980287
C         6.96251797623013   -0.53610866816838   -0.02322542882725
C         5.90626926392409   -1.53086906572484   -0.60045395428172
C         8.92750565872285    0.00397065937779    1.44892771751777
O        10.11634283905227   -0.26628447537742    1.36375146028480
C         8.14848626053222    1.16164600492498    2.02900700516540
H         1.02132549351456    1.38053239240144   -0.24692416384281
H         0.51276010098291    0.10142458927367    0.91388876955285
H         0.45893644796547   -0.26412832597363   -0.80714955473215
H         2.00049294756228   -1.88279827882044   -1.87777664893439
H         3.45530192593635   -2.66817843539077   -1.75599722795714
H         6.10319694188051    1.04867536193216    2.84937292597275
H         6.08832978285047   -1.48113127945611    2.23502353860028
H         7.69081526737495   -1.36739889175027    3.09111147915983
H         8.35258487077535   -2.02189494792223    0.84204856805268
H         7.50021455697397   -0.07748004734676   -0.86265036968814
H         6.04250414888382   -2.49676084766961   -0.10291364842726
H         6.04200890572071   -1.79312903784411   -1.65532648206970
H         8.16542618933331    1.99806315678210    1.32797686668783
H         8.55405673656389    1.53975703907295    2.97114575226259
