30
 energy: -45.978687966237 gnorm: 0.106955635177 xtb: 6.4.1 (79825abcba525fcdf90b791dcacef51065a7a4e7)
C         1.21240197109098    0.27523332049434   -0.57583419098221
C         2.55689871584043   -0.08836910600969   -0.04867438451885
C         3.17399747330529   -1.32810803080831   -0.07109738752656
N         2.53730299279806   -2.48985397421441   -0.31117941479247
C         4.52444240425023   -1.21803318012517    0.30610554890759
C         4.90124345854918    0.09669383521659    0.25362600253358
S         3.67486820776556    1.23116294673272    0.06732079472952
N         6.24576707281183    0.33853176171570    0.35666133574411
C         6.81726770269759    1.11888135338627    1.49407486845764
C         6.91223567406703   -0.02707743382584    2.52241590569806
C         7.79296363582946   -0.88581974608559    1.61842360990620
C         6.89783800287370   -1.04746298633767    0.37836476391984
C         5.71989167389874   -2.05992377872262    0.53888875163906
C         8.91401563890074    0.06085936955773    1.25689152888714
O        10.04160932371708   -0.33639446093809    1.00322136803331
C         8.30327193870487    1.44296398494619    1.27571635912911
H         0.51813295277887   -0.56454880053557   -0.67483364164990
H         1.35701714307327    0.71320450704532   -1.56845305474306
H         0.77279811315367    1.07256477042657    0.03321619491447
H         1.53614955834805   -2.64225832911562   -0.24059606558376
H         3.07824701153158   -3.34458885662407   -0.40079435840051
H         6.16223485263830    1.97072703553008    1.69281220197684
H         5.93256372232804   -0.50220488105812    2.63644512245624
H         7.41405671492980    0.27393016218803    3.44888699131196
H         8.15200314062426   -1.83515047965284    2.01094343119381
H         7.44882837689420   -1.27618584534169   -0.54260620132551
H         5.63741308774051   -2.49591183494138    1.53997062982567
H         5.79467266348948   -2.81665142964469   -0.24961150443551
H         8.57534128200775    1.80898127128969    0.28408462928144
H         8.66995421266600    2.15345077980002    2.02125871802342
