30
 energy: -45.980528832137 gnorm: 0.115138357898 xtb: 6.4.1 (79825abcba525fcdf90b791dcacef51065a7a4e7)
C         1.08782635335972    0.13677667045717   -0.05494553968541
C         2.57197947357061    0.01549368864241   -0.07380399493226
C         3.33229012509576   -0.92690264588799   -0.74617527079174
N         2.76747125110279   -1.97086968682874   -1.38161632538463
C         4.70410716278416   -0.75121338987706   -0.49053615682818
C         4.85634818504867    0.22036284472870    0.46135804153163
S         3.47005025192216    0.93288529448509    1.09081483840859
N         6.15714477774916    0.54842444045701    0.73911590415357
C         6.65155888027894    0.52349121305759    2.14773261041109
C         6.94330874742471   -0.95425104332133    2.48072748774052
C         7.78254110627802   -1.13054863317226    1.21782195529353
C         7.01713077550408   -0.50787397962808    0.03818316103548
C         6.01758093075047   -1.35391195162977   -0.81241793585177
C         8.83902868690972   -0.07067819999445    1.42799579567010
O        10.04553710184956   -0.21443560535994    1.29647421326621
C         8.06594444291807    1.10168446049677    1.98610147620921
H         0.70890270690873   -0.75013281970937    0.46163242399690
H         0.57463584128654    0.20057619501086   -1.01961628305015
H         0.88872187536396    0.96661803002828    0.63182377290996
H         1.87175622789300   -1.77096608843439   -1.81549469037692
H         3.37085650060880   -2.47989668555538   -2.02039699041587
H         5.92116728407537    1.01954216937101    2.79167918602681
H         5.98946933472673   -1.49153969988625    2.48487023956362
H         7.49804462280396   -1.22707442558192    3.38550045102758
H         8.13027708728967   -2.12228474898885    0.93542297761550
H         7.68950984496617    0.02952978101892   -0.64240161847077
H         6.15358958829733   -2.39430288650083   -0.49914235790388
H         6.32682477854350   -1.26878104007117   -1.85983502966394
H         8.07482419521896    1.98418772256899    1.34389200066701
H         8.55142137245971    1.28315293653950    2.94863050202129
