30
 energy: -45.981954415224 gnorm: 0.111945565401 xtb: 6.4.1 (79825abcba525fcdf90b791dcacef51065a7a4e7)
C         1.14009738719210    0.16066288636854   -0.06012214881695
C         2.61779805188050   -0.01544922361760   -0.11634464214499
C         3.23672770107968   -1.25311646092088   -0.05827419748713
N         2.63478474636336   -2.45148899823257   -0.17760908398985
C         4.63571216902644   -1.11421546152029   -0.01766621375001
C         4.96941216308796    0.21084178599152    0.06048662283946
S         3.72385137951608    1.31851329963447   -0.15715574899729
N         6.32088426753483    0.42275012083206    0.13440287583819
C         6.79297401979598    1.08101014189044    1.38863291683186
C         6.65162412697739   -0.09539055045200    2.37647266251065
C         7.65201148986785   -0.96997090115851    1.62503636713220
C         6.98317770056489   -0.95449572330011    0.24028142235662
C         5.82340003941570   -1.99050643057981    0.09886024873264
C         8.88271290616544   -0.11107296514415    1.44802578817098
O        10.03640347830290   -0.40233310214803    1.72693844390829
C         8.30933755025025    1.26954888378033    1.22734634214935
H         0.59215911913569   -0.66261548697027    0.40787437668926
H         0.72410684188711    0.16832535181661   -1.07250432756669
H         0.87122645592826    1.07383299978137    0.48187428638141
H         1.63772336241925   -2.48174042329092    0.01072767891870
H         3.19415970430024   -3.18087605531795    0.25403562745072
H         6.22949857839958    1.98167871918384    1.64455705643325
H         5.63508183244584   -0.50177199800364    2.37780265927911
H         6.91699162814045    0.13525035667529    3.41433752055050
H         7.85675774169891   -1.97050996263219    2.00081632355547
H         7.71009270276999   -1.03369002580132   -0.57789636812688
H         5.88906031380466   -2.64480186137737    0.97443974578489
H         5.83684886421118   -2.60772975006395   -0.80602432329225
H         8.38495733985563    1.81952002988986    0.28759251639323
H         8.68906010007590    1.92106849183101    2.01880939749237
