30
 energy: -45.981898312154 gnorm: 0.123718528122 xtb: 6.4.1 (79825abcba525fcdf90b791dcacef51065a7a4e7)
C         1.00805497237954   -0.04561111639553    0.08067791946831
C         2.49407317554276   -0.12381556828280    0.13907010363004
C         3.34235200486817   -0.79033037579137   -0.72951915493621
N         2.84379209256956   -1.42304375554877   -1.80830767088509
C         4.69417936751085   -0.52909039360768   -0.44243642422787
C         4.82216021365406    0.33052777787242    0.61487988121212
S         3.36663114691428    0.86224487781396    1.26636903946867
N         6.12193052507091    0.54666136074794    0.99001856916271
C         6.70602291094580    0.10698767664112    2.29186001195478
C         6.95475869202781   -1.38286034454506    1.97847664543871
C         7.88319217023953   -1.03863415899396    0.81664972868647
C         7.04891741075419   -0.08398094608562   -0.05383706143957
C         6.03351990111548   -0.75659475468912   -1.03105808365856
C         8.90432344882629   -0.18823252007500    1.53621373072218
O        10.09281589896023   -0.21713959668497    1.25288220748674
C         8.11937911283457    0.67343591265642    2.49796490008412
H         0.56738640218170    0.74990044208743    0.68896809908785
H         0.65804320925918   -1.01631210734321    0.44572020127283
H         0.62649162759159    0.00933107310431   -0.94466209111647
H         1.94043822653913   -1.88038412971533   -1.73544572663507
H         3.49695708444938   -2.01034371187116   -2.31789302960715
H         6.01631244955776    0.29844521797239    3.11760156961360
H         6.07349068792447   -1.93355693871357    1.63408463961516
H         7.33960460268871   -1.97889986769717    2.81358688741325
H         8.39282516848469   -1.85005084244511    0.30081332764787
H         7.62084499064799    0.66913359447274   -0.61044229962705
H         6.26421117831173   -1.82680489351152   -1.05308137453507
H         6.07814610918943   -0.36659157274911   -2.05373477297185
H         8.32538616730030    1.73519029533697    2.35112282453136
H         8.42159641114814    0.43675399307226    3.52155034244473
