30
 energy: -45.970225610571 gnorm: 0.132254049333 xtb: 6.4.1 (79825abcba525fcdf90b791dcacef51065a7a4e7)
C         1.12927633106514    0.08728706669192   -0.62572003984584
C         2.54033020327759   -0.12943104951840   -0.20176727538048
C         3.08857018069192   -1.31110378247791    0.26870991679784
N         2.51817124885497   -2.51603875208284    0.45699077690843
C         4.47968452238681   -1.10967035475122    0.31693370706095
C         4.95874732714044    0.13512541978353    0.00997666895864
S         3.69332765283437    1.14022530246906   -0.45285524454102
N         6.30594216516951    0.27293868339282    0.21714628218289
C         6.96328561782570    1.23213756002266    1.15368519549701
C         7.01996665037708    0.45405585507075    2.48451271247306
C         7.74431601562219   -0.73220361987840    1.85330067738389
C         6.77921642497037   -1.09706791245378    0.71287040000340
C         5.49869501303464   -1.94667248703795    0.99006952140856
C         8.95304963107550   -0.09114897294417    1.21168055642766
O        10.03603771834707   -0.64050758312750    1.07395402026092
C         8.46302541576399    1.28466506392963    0.82362460732771
H         1.09453605922428    0.41975379592978   -1.66749898176595
H         0.87282703955377    1.05596460977526   -0.18535417300560
H         0.35585740098471   -0.60385415046415   -0.27347245927761
H         1.66557430975932   -2.70789695346384   -0.05952271199390
H         3.13740895342421   -3.31868967672885    0.39766837006817
H         6.46842671995280    2.20496005919725    1.09949389993063
H         5.97579527093371    0.33786457508010    2.79226522148210
H         7.70455728392564    0.85386652090955    3.24099516559616
H         8.05226514206692   -1.63174069339717    2.38264972115530
H         7.35372107947703   -1.61544858777653   -0.06515141259315
H         5.33785290043677   -2.00046488385848    2.07186868645027
H         5.55304241345819   -2.96538546696337    0.59103090092521
H         8.55604987345086    1.43225835904693   -0.25381984184364
H         8.97729449081632    2.01135203369516    1.45808040051811
