30
 energy: -45.977589246753 gnorm: 0.111363274813 xtb: 6.4.1 (79825abcba525fcdf90b791dcacef51065a7a4e7)
C         1.19525259621545    0.32021014046947   -0.55356910997533
C         2.55386682514265   -0.12589421289675   -0.13771578389983
C         3.17373980455979   -1.33851400080926    0.11442907852490
N         2.43269884264859   -2.46116564082297    0.17086020683464
C         4.57093442690454   -1.23062888103907    0.23404535025857
C         4.92507548540459    0.09130826712177    0.21653671797655
S         3.69014673598112    1.18283799354428   -0.11397786003207
N         6.25267082470270    0.41831235629802    0.30258640039575
C         6.78520727033952    1.06382805882736    1.53910668144306
C         6.90571255516998   -0.11248075075996    2.52981441212060
C         7.77579147634208   -0.91585855768815    1.56655487130519
C         6.91604107463735   -0.96244200435184    0.29227719072980
C         5.80112414780199   -2.05444892736325    0.23857903434997
C         8.90299099283654    0.04521882405062    1.26752995124334
O        10.06769366974597   -0.31851117521539    1.19828519851919
C         8.27182912106939    1.41429587974962    1.37163621930659
H         0.37119894677422   -0.34808476992174   -0.28643267991067
H         1.19244478951651    0.41481801049362   -1.64401213488523
H         0.97975226878572    1.26523323386766   -0.04325319980582
H         1.63533420093971   -2.47655630861066   -0.45722421608488
H         2.97900940982928   -3.31671432617177    0.19921855924117
H         6.16432203872123    1.93623270401082    1.75732054551970
H         5.96247747404158   -0.64134077447845    2.70046183776810
H         7.31667856992184    0.35997348103235    3.42907662966057
H         8.00161108240017   -1.94418294927627    1.84180833270541
H         7.54637201964391   -1.02781762740192   -0.60354700175848
H         5.86570953751338   -2.78566377363064    1.05111015186171
H         5.90754016017854   -2.59934815807193   -0.70573132305751
H         8.43773999696571    2.06656241771655    0.51236570719716
H         8.65109866048443    1.98439687441657    2.22382179518342
