30
 energy: -45.974165666720 gnorm: 0.121987026583 xtb: 6.4.1 (79825abcba525fcdf90b791dcacef51065a7a4e7)
C         1.21125944363022    0.29716643646411   -0.16797335361648
C         2.65342911520928   -0.07414413854579   -0.16084643383977
C         3.17793223875632   -1.33897615694838    0.04739073812142
N         2.65186362886563   -2.51283008198897    0.44487237708788
C         4.58007104666703   -1.23002688315862    0.03200112515700
C         5.06212765120831    0.03839145556104   -0.14681890097962
S         3.83926826113565    1.18601037941222   -0.26219549391735
N         6.41529956725099    0.22293455599147   -0.03858207506659
C         6.77628703275686    1.15571223457979    1.06996735380830
C         6.64018684341598    0.25984276715564    2.31841454132780
C         7.55156034777870   -0.82996769830342    1.75981481399072
C         6.95186532272629   -1.14943432765562    0.38016582963405
C         5.70297397451449   -2.08062396065781    0.48767684769500
C         8.76545865281635   -0.01428430825094    1.37932053738656
O         9.90276851740039   -0.44494943809907    1.50048360646019
C         8.29607203148229    1.37371192716834    1.00956649079691
H         1.16109960074648    1.21398525584138   -0.76292848852343
H         0.93215945908008    0.66399642396264    0.82478214431271
H         0.51828200279445   -0.44697201839337   -0.57536947476530
H         1.64092420185016   -2.49911425696399    0.53614469920712
H         3.09045003906090   -3.27721574053567   -0.05968634744759
H         6.13135819657613    2.03472895593632    0.99512068892691
H         5.57597649633547    0.07165715476875    2.49319554306565
H         7.06640076303563    0.59933774231177    3.26913188025494
H         7.73713203986743   -1.67161348625346    2.42419838555937
H         7.71949549761732   -1.65681888124639   -0.21766097114068
H         5.46138764496996   -2.31699405351997    1.52922302875833
H         6.03103912862247   -2.95277453895310   -0.08824694448043
H         8.71031416260317    1.72975226104932    0.06459950462481
H         8.58876354051877    2.10202721175436    1.77046681853256
