30
 energy: -45.974615384965 gnorm: 0.120410318137 xtb: 6.4.1 (79825abcba525fcdf90b791dcacef51065a7a4e7)
C         1.20300569426609    0.24556916748410   -0.08072678223158
C         2.65205731715227   -0.09797400061115   -0.08251274957357
C         3.26921077131339   -1.33601887904206   -0.15057729487400
N         2.59897644730631   -2.50325456941748   -0.11864474850932
C         4.65732852099027   -1.13637224837770   -0.04394522809319
C         4.99638221176961    0.18888173434979    0.00060546362574
S         3.71127157792531    1.27239081203200   -0.01438820427219
N         6.34942741514683    0.35936550391448    0.13117953876160
C         6.77452051445006    1.14067326693924    1.33039679724376
C         6.70066611849187    0.07513413576999    2.44345458359380
C         7.56944881003081   -0.94203059670109    1.70798553786388
C         6.95886203537383   -1.03593583236104    0.29962124568101
C         5.79987110580622   -2.06522298850521    0.11064945508989
C         8.79837946269920   -0.08249348430044    1.52200222827251
O         9.97391848050726   -0.39262618515690    1.39729296608527
C         8.29931222267834    1.33013117312654    1.32452089906292
H         0.57076091043008   -0.42455432296411    0.50939644097719
H         0.75234714507983    0.18432032781248   -1.07630700326951
H         1.07004577238928    1.27425714041254    0.27148633649670
H         1.66887970808126   -2.47448982664379   -0.52436625084931
H         3.19727108534164   -3.32266573755716   -0.16144487115143
H         6.11317800131891    2.01032841816527    1.35345379253166
H         5.66182234434581   -0.11917653488535    2.72902920502606
H         7.18657081106039    0.28775529460017    3.40234325059775
H         7.95893245612758   -1.86218048798558    2.13907333234324
H         7.65709700013862   -1.35256752777643   -0.48542930091749
H         5.64937549530423   -2.72300822502589    0.97304315231875
H         5.99614936367158   -2.65405059205515   -0.79196812378584
H         8.64491296734396    1.73457932625598    0.37147017362818
H         8.46445893546729    1.99184760531093    2.17888540531637
