30
 energy: -45.978821070262 gnorm: 0.120087176779 xtb: 6.4.1 (79825abcba525fcdf90b791dcacef51065a7a4e7)
C         1.10741506512710    0.07921891155602   -0.12618590424044
C         2.59199071492254   -0.03595742150700   -0.10283544907100
C         3.19986523001734   -1.27004600313155    0.05772672612098
N         2.58581814246337   -2.46684875546207    0.00043609345163
C         4.59214695633553   -1.11036956239802    0.17670178866737
C         5.04729862600605    0.16201461630171   -0.04035977970403
S         3.76161457219144    1.24328051242389   -0.10041496414434
N         6.39205902117229    0.41608124795745    0.02221209292719
C         6.88554922137263    1.19143088966415    1.19888891671171
C         6.66441259481029    0.22294231477573    2.37908136671889
C         7.51416449022729   -0.83878963871427    1.68556197508881
C         6.93227722370798   -0.99568406700200    0.27067126611661
C         5.75116736039849   -2.01323922365051    0.35990885108163
C         8.83902578150344   -0.13258780376076    1.51326597445933
O         9.96699426828864   -0.59868637686595    1.57703027655982
C         8.41685054271191    1.25511304199240    1.08943837109011
H         0.92143681077160    0.73490477551712    0.72969522235565
H         0.60487555221808   -0.88335073810682    0.01143033559072
H         0.69564038529055    0.62626504808534   -0.98123766126773
H         1.67460471593164   -2.49340124294292   -0.44622075782854
H         3.20407654892113   -3.22155822617407   -0.28133178634895
H         6.39716009004563    2.16553668903891    1.28134845318002
H         5.62266115679650   -0.09474899994080    2.49013116029995
H         7.06747547035045    0.56949588101144    3.33731909639568
H         7.68589465604010   -1.75786396134211    2.24235740900578
H         7.68001982205994   -1.33467070470323   -0.45738169950418
H         5.75249264883645   -2.46583468204233    1.35700905882082
H         5.84359170205991   -2.84063560516617   -0.35201429202106
H         8.56945899177722    1.46096876119383    0.02846808348379
H         8.80435428477322    2.12704001977216    1.62297841519601
