30
 energy: -45.975966679327 gnorm: 0.116650052792 xtb: 6.4.1 (79825abcba525fcdf90b791dcacef51065a7a4e7)
C         1.04740192953683   -0.19931977433257    0.20641669852465
C         2.52744856091245   -0.03837276315691    0.16989608027663
C         3.33424353709358   -0.72100267479764   -0.72529360918959
N         2.89821796660337   -1.53536577089365   -1.70476659767014
C         4.72212214242498   -0.51096656764680   -0.63710133375143
C         4.89797569481444    0.41852986194559    0.35201553601883
S         3.53152059845014    0.96590891295109    1.16374375527027
N         6.19999248385461    0.64357876272922    0.71388690436526
C         6.59070601903066    0.43785636311504    2.14017201745491
C         6.74228714414612   -1.09676292812723    2.09903152974090
C         7.78613262341023   -1.13328827618738    0.98575946569225
C         7.06242009256262   -0.32355215097909   -0.10313537042717
C         6.01396755815574   -1.19918448846134   -0.85971825826293
C         8.83803494134965   -0.21279676628778    1.56009498107185
O        10.04910232792915   -0.25236772036317    1.40079463354293
C         8.06086782279265    0.85930976834415    2.28822564098011
H         0.90186002751301   -1.20013594025359    0.62382408996419
H         0.52961314242861   -0.12227863679138   -0.75482414927451
H         0.56939390891708    0.59967151311538    0.78352382126610
H         2.04740860905840   -2.02586507260762   -1.44776239886052
H         3.61745865725626   -2.12605030188234   -2.11097787024190
H         5.91003722747093    0.86483663327835    2.88083622905270
H         5.84873512628761   -1.63959884009318    1.77437809744412
H         7.15813368120247   -1.49387372688894    3.03185159487538
H         8.06883519375516   -2.15105766614049    0.72415910992548
H         7.77082752308849    0.25479752116260   -0.70956973035715
H         6.00349889300986   -2.19171369950682   -0.39730133841588
H         6.21634949262359   -1.35147086881948   -1.92546307290605
H         8.35758733081466    1.81564989230218    1.85383529828483
H         8.37414305685793    0.84052079482699    3.33540584794797
