30
 energy: -45.978211927133 gnorm: 0.111862760868 xtb: 6.4.1 (79825abcba525fcdf90b791dcacef51065a7a4e7)
C         1.12374391983366    0.02132081811578   -0.04091252444897
C         2.61194294738320   -0.03236594265032   -0.02837938813234
C         3.31386873286839   -1.14692784532125   -0.45653616624118
N         2.81430196791910   -2.35754554309277   -0.76880321147875
C         4.69142805092776   -0.93218306379168   -0.27129297688302
C         4.98310038788928    0.33633745604268    0.15181835492387
S         3.62787953000384    1.25427653552458    0.53455889617514
N         6.31385919445681    0.59553261227489    0.34865452341332
C         6.72457548322050    0.99825058943018    1.72647829709797
C         6.64269900812572   -0.32531416808590    2.51463965195836
C         7.54157901036918   -1.05166123636101    1.51726467227237
C         7.02056518454376   -0.74138396709245    0.10397171566374
C         5.92365646827389   -1.74713137572294   -0.36896144335227
C         8.77897911932994   -0.18769832050984    1.43933244229103
O         9.94467991282445   -0.51125087791826    1.26589059508731
C         8.24149064122320    1.21413332250282    1.61123237113708
H         0.76769214721029   -0.52077042860150    0.84022797828202
H         0.65046391110178   -0.28270174509567   -0.97984853893924
H         0.75122440798678    1.02717944412089    0.18136883984808
H         1.80468119315503   -2.42840018065295   -0.84730671852921
H         3.39160946211741   -3.17026104939894   -0.57532828585465
H         6.02911739766779    1.75155917419465    2.10472405386888
H         5.60595728828803   -0.67502510487590    2.55171732396141
H         6.99496147068583   -0.21729218770421    3.54663820414477
H         7.70022594590113   -2.12810079603701    1.53512633421469
H         7.83625940567825   -0.75418029774923   -0.62990241987910
H         5.95516073356667   -2.54531665527443    0.38001183492308
H         6.23047586877266   -2.06138060763340   -1.37249064953136
H         8.52308894287474    1.83911124265375    0.76186268520140
H         8.75133503776577    1.63502704813086    2.48185740283325
