30
 energy: -45.980598231345 gnorm: 0.109455233169 xtb: 6.4.1 (79825abcba525fcdf90b791dcacef51065a7a4e7)
C         1.15567898625188    0.18672096884755   -0.56496504682073
C         2.58296801615323   -0.10545219596028   -0.25632844775716
C         3.13603362442297   -1.33180185452205    0.07299086472824
N         2.40099275867200   -2.44422314151519    0.25982415964275
C         4.51669762549593   -1.20300571067233    0.30810468046440
C         4.98189772825791    0.07557603081623    0.15958581390247
S         3.75235436097405    1.17150611018121   -0.17639992054347
N         6.34034389729209    0.25266446803316    0.14913128192033
C         6.88356407696662    1.22054183977718    1.14782704066911
C         6.90901276555126    0.38232179427102    2.44261090855248
C         7.70331111321850   -0.77217599971254    1.83717953254431
C         6.88605153554400   -1.11244440367278    0.57963089455915
C         5.66222611578473   -2.08046019224908    0.63962370252462
C         8.92187953076663   -0.01876116879456    1.35642856583469
O        10.06325017538845   -0.43645418690958    1.22824015722677
C         8.38947778646545    1.30326328384094    0.85405904398561
H         0.77388630307096    0.95774677438134    0.11090322634440
H         0.50317999968798   -0.66067987423941   -0.33219605567551
H         1.16000964276834    0.54570358066063   -1.59987764757042
H         1.46533639312898   -2.53763362884483   -0.12271856876887
H         2.73552654246479   -3.26181732425201    0.76067332863912
H         6.23940686895411    2.10227289045462    1.19045884680292
H         5.91029138704347    0.11323087738801    2.80129123024503
H         7.52998658524482    0.87235029002506    3.20092627194749
H         7.81878824069196   -1.63468154964440    2.49060070440974
H         7.60010987161845   -1.51233338654600   -0.15132844013694
H         5.47985394506459   -2.71775317544688    1.51120346241381
H         5.88009958590904   -2.83898715786586   -0.12006674947033
H         8.47656540838054    1.38401265421632   -0.23093826136285
H         8.90780638432372    2.10926390136395    1.38015718313239
