30
 energy: -45.974027825108 gnorm: 0.118493792661 xtb: 6.4.1 (79825abcba525fcdf90b791dcacef51065a7a4e7)
C         1.08000766086737    0.19746727892538   -0.21635696574025
C         2.53521706044445   -0.05828926218963   -0.02999737247263
C         3.23355233583542   -1.24064873314163   -0.21060801870619
N         2.66314567898473   -2.39572262756234   -0.60190511865856
C         4.59861169834138   -1.04571487930788    0.06636449146316
C         4.88865956299172    0.24913698558483    0.40173166599431
S         3.56287078918288    1.28176813987094    0.36070647083497
N         6.20866876727766    0.61514488492939    0.42316800551910
C         6.74915406256020    0.84010475026979    1.79668054241818
C         6.84607718555304   -0.57402411506112    2.40542614263778
C         7.80279990952881   -1.06080236130646    1.32004568453519
C         6.93819740100841   -0.69314045229148    0.10250242175606
C         5.85764123546026   -1.78338857752664   -0.18413280791873
C         8.94343261683490   -0.07116339452633    1.37693266125929
O        10.14240508864551   -0.24198426772452    1.21288414796519
C         8.24046827513686    1.20880226939127    1.76565420745182
H         0.63071600222953    0.94138369170114    0.44830065593165
H         0.45859299788450   -0.69290161085909   -0.35460161921758
H         0.83489034343041    0.67949895108987   -1.16898193786991
H         1.84156078280216   -2.24531897524058   -1.17887503386958
H         3.24481106622453   -3.12029592790435   -1.01163905224834
H         6.18758311778134    1.53427035179127    2.42674229837779
H         5.94225461532151   -1.18857367738923    2.34266084004158
H         7.18370519819351   -0.57697869953051    3.44791220862682
H         8.10913067497173   -2.10344865797035    1.26294771609524
H         7.58907400818468   -0.46633686536410   -0.75131947361817
H         6.03454942459909   -2.66822841405080    0.43620193325529
H         6.14780252461598   -2.11200012293535   -1.18801650329944
H         8.53685807126333    2.06736737274871    1.16039152023412
H         8.52973705106489    1.50089716702800    2.77861271024612
