30
 energy: -45.971613371718 gnorm: 0.136973067821 xtb: 6.4.1 (79825abcba525fcdf90b791dcacef51065a7a4e7)
C         1.11384404670092    0.06430704834684   -0.02482764697633
C         2.59820232638972   -0.01888129133214   -0.11163727521742
C         3.27253425337381   -1.21859677008955   -0.26728275592138
N         2.76114758607652   -2.46382949626775   -0.29077778172526
C         4.66301902062040   -1.04716300787504   -0.14374074992518
C         4.98761999513066    0.27579627098683   -0.01087526862691
S         3.68012927877527    1.33225500223177   -0.02031191004151
N         6.34303021803483    0.39794086756958    0.14657139926636
C         6.83035955967093    1.11011025518485    1.36501010259051
C         6.62992344714886    0.04535602245515    2.46312190770611
C         7.55953714808825   -0.92846131499858    1.74352456586226
C         6.90552599983393   -1.01173047538322    0.35411460269893
C         5.75607675918116   -2.02569068707766    0.05569628383186
C         8.82012977653203   -0.14952049480908    1.44717711403094
O         9.97818932061639   -0.53938539077309    1.47020167400132
C         8.35377836620143    1.27433128604175    1.25035771087806
H         0.75114748978036    0.01354397189551    1.00615183583317
H         0.65729585718214   -0.76821973872181   -0.56933423597248
H         0.73904384265811    1.01341601037551   -0.42313451178091
H         1.90259614751790   -2.71691069512515    0.18813413921827
H         3.52950324545434   -3.09488177487075   -0.08431815185197
H         6.25993313175903    2.04190043962559    1.38922517478773
H         5.57823958965029   -0.24944066411543    2.53769982075429
H         7.05371759018873    0.46128422205718    3.38408925766716
H         7.65165620222901   -1.91636758437539    2.19047568343082
H         7.73125615886894   -0.97409205720359   -0.36758139220077
H         5.72948725643942   -2.64680975750268    0.95711590805453
H         5.98295604307607   -2.64557928110206   -0.81850364669344
H         8.60302249423844    1.89569454707415    0.38832004808751
H         8.67502535211983    1.71408113133383    2.19825075849759
