30
 energy: -45.973439841430 gnorm: 0.115778494831 xtb: 6.4.1 (79825abcba525fcdf90b791dcacef51065a7a4e7)
C         1.05605663602563    0.05187365473941   -0.51326198142605
C         2.50384192351139   -0.01263968403846   -0.17043334770154
C         3.10061948344725   -1.22869621480882    0.11823482853681
N         2.50390297490614   -2.42991323766291    0.23519608990773
C         4.49542512004788   -1.09325403161712    0.23770316771415
C         4.92370553167492    0.20428782258164    0.15895485689386
S         3.69222555169176    1.23917864247904   -0.32908624499202
N         6.27498879429559    0.36250817933099    0.31972019816778
C         6.94594452909638    1.15916808918031    1.38949559477539
C         7.01377331314356    0.19085794260379    2.58845367145753
C         7.75649213759168   -0.87478696718043    1.78652359301713
C         6.85656361025242   -1.03586579481990    0.54987220915467
C         5.63417950749349   -2.00561512043748    0.48850676028463
C         8.93946041871126   -0.07788667512904    1.28732387234782
O        10.07354464724515   -0.53044638771654    1.23565816672668
C         8.41362695693708    1.29977731255861    0.95699597643531
H         0.78064678588836   -0.58168748771510   -1.36166876007784
H         0.84012733635165    1.07854423028670   -0.82526612131737
H         0.61511154193208   -0.31490793060973    0.41999578158183
H         1.54960401790985   -2.41887230448313   -0.11079362536577
H         3.14395905383415   -3.21436818717527    0.15657275863632
H         6.34514111759276    2.04335480824445    1.61633196412820
H         5.99270852101562   -0.08286056630886    2.87307755791865
H         7.42848151735804    0.56168230327069    3.53253259012621
H         7.96960510186781   -1.83472105661163    2.25269891387576
H         7.50657347639879   -1.31304777518068   -0.28962131773756
H         5.36191962089085   -2.60527593954714    1.36334085206207
H         5.86844093763998   -2.70091207674428   -0.32490907172965
H         8.62707083836185    1.54563074146998   -0.08479175216518
H         9.02834785496504    2.05808676014930    1.44909940583980
