30
 energy: -45.979668363461 gnorm: 0.101982567349 xtb: 6.4.1 (79825abcba525fcdf90b791dcacef51065a7a4e7)
C         1.06333872330086    0.01483816807651   -0.03648233231180
C         2.54105563919710   -0.08717290596824    0.11753771816343
C         3.39575726910148   -0.61694658141801   -0.83487567668156
N         2.90899030318906   -1.18290081375750   -1.95533389711204
C         4.73935105546724   -0.41731923436941   -0.47017753771644
C         4.87458642880158    0.27648252805739    0.70182535648095
S         3.40493228819240    0.76749148900926    1.35355610046605
N         6.16062352352740    0.49405493517773    1.12089152391676
C         6.64109941838076   -0.13339225544909    2.38766732371239
C         7.06327335160870   -1.56607495302922    2.00177199787876
C         7.92410550197038   -1.13454944626045    0.81725694381028
C         7.00315749866643   -0.18294180281204    0.03532213999874
C         6.03688163995337   -1.00301233210083   -0.87692653651970
C         8.79093897469936   -0.04505158318911    1.40484396832855
O         9.89371998184344    0.32057795605787    1.02561348940305
C         7.98673571323505    0.59804953924044    2.51085186068568
H         0.77759977456794    0.01426164282206   -1.09260604517964
H         0.60170918195329    0.95710571251697    0.27505349969265
H         0.57567038408439   -0.81418637099780    0.48775928875588
H         1.91048429823716   -1.34362712179385   -1.86775478705651
H         3.41103263013853   -1.94298534142668   -2.40416349331055
H         5.90258185847421   -0.02611672491363    3.18597139943540
H         6.26905807615840   -2.27134213831675    1.73658116332089
H         7.62577616911083   -1.95423046756429    2.85833751034072
H         8.44212166015392   -1.91156153445244    0.25857860429089
H         7.57960764129607    0.62301150406602   -0.43609758130448
H         6.01718338096773   -2.02756545064550   -0.49097820757133
H         6.26850462643084   -0.93805039256331   -1.94561373824329
H         7.95041277336946    1.64704688213369    2.21150409812967
H         8.46734713882314    0.38406451287973    3.46913357570149
