30
 energy: -45.974638061822 gnorm: 0.120914725946 xtb: 6.4.1 (79825abcba525fcdf90b791dcacef51065a7a4e7)
C         1.11457639627981    0.07249069936105    0.07898061190836
C         2.59834352349881    0.01345464197452   -0.03382698308180
C         3.30725585158079   -1.12755033756931   -0.37119508006439
N         2.87319955492274   -2.31700239371636   -0.82887599240656
C         4.69032405225118   -0.89135226452478   -0.27407220376724
C         4.92054280901068    0.31834104128378    0.32332355011745
S         3.59348886935468    1.33935089381363    0.47229592378541
N         6.26778575424440    0.55397636888540    0.40243131512872
C         6.66508856025910    0.82886248140557    1.81517902377257
C         6.66719044158238   -0.58708528161626    2.42739896722834
C         7.68580626874043   -1.08013769088625    1.40287796170561
C         7.02132276163128   -0.73493450072087    0.05959064903965
C         5.91621265424301   -1.69427832948974   -0.48519685867253
C         8.84447112541848   -0.11828378031973    1.52935796477935
O        10.01976215142798   -0.30676070332621    1.25224043162181
C         8.15725386773381    1.19535123135091    1.82205388729796
H         0.73388564905682    0.27468117663514   -0.92662265725825
H         0.82932614756533    0.96326446134504    0.64746888962140
H         0.74644139434680   -0.93271987121759    0.31127287714228
H         1.86538490754780   -2.43660050773162   -0.85174992665813
H         3.45355454468790   -3.14608907285785   -0.74505263730997
H         6.01758269933538    1.62930532830953    2.18155728702436
H         5.73537946454011   -1.16106864939607    2.39951916562197
H         7.06309616003413   -0.68572965931929    3.44440759612107
H         7.90602371332473   -2.14583641752549    1.40215838355745
H         7.74097912735364   -0.60743667861819   -0.75890252515588
H         5.83917331530691   -2.72736104455872   -0.13043175383156
H         6.10212669757952   -1.84589468330314   -1.55403269096771
H         8.53730055388711    1.92045244411852    1.10016981405589
H         8.38020408184873    1.50618551872526    2.84614178860623
