30
 energy: -45.978045052058 gnorm: 0.108139232178 xtb: 6.4.1 (79825abcba525fcdf90b791dcacef51065a7a4e7)
C         1.25137728684878    0.21309316816917    0.02036390640805
C         2.71122495662653   -0.00839246018122   -0.17345194831609
C         3.27880711678386   -1.27163081737277   -0.15486119378453
N         2.65425027861634   -2.44945886777732    0.03308218377489
C         4.67982917677563   -1.14886417068997   -0.16772876478065
C         5.08624346920807    0.15667676178042   -0.10747466426830
S         3.84858329737811    1.29123211069979   -0.02557531945757
N         6.41153734585021    0.37954813058633    0.15855182706647
C         6.63601350857335    1.07325661838144    1.46148965009561
C         6.52070678243459   -0.16682253633092    2.37178289494613
C         7.58170118095180   -0.98790863798467    1.64347618046796
C         6.99617254152400   -1.03494875590222    0.22218528408648
C         5.82423734829451   -2.05635484965441    0.07487659417293
C         8.71693850302331   -0.00154222376261    1.49521323070693
O         9.90476521560817   -0.28629988291395    1.45512024210644
C         8.13502750458490    1.38294650816160    1.32744569774488
H         0.96319476453671    0.22285363181409    1.07577848812522
H         0.69005960594945   -0.54180195167014   -0.53917191872242
H         1.06456467532760    1.22625471401859   -0.35184046355620
H         1.63931803187462   -2.43048311337641    0.02473091102547
H         3.05431078736572   -3.25393246945731   -0.44020081681312
H         6.06068263991908    1.97328786331554    1.69201898508234
H         5.49160241491865   -0.53201883012262    2.29379729845312
H         6.86521859602247   -0.03110532874787    3.40312718823684
H         7.88951276254932   -1.92761471715455    2.09780483996954
H         7.81221023392510   -1.13309573004890   -0.50482345784824
H         5.77045799116303   -2.66542888067943    0.98327619756429
H         6.09075883939700   -2.71711281931992   -0.75718517876253
H         8.28507030163952    1.71094719584024    0.29728717901161
H         8.46268158685633    2.21913263865967    1.95075648643235
