30
 energy: -45.977487298744 gnorm: 0.122817456830 xtb: 6.4.1 (79825abcba525fcdf90b791dcacef51065a7a4e7)
C         1.20854442786451    0.30014426172698   -0.30331818830887
C         2.62810574824458   -0.13026797268959   -0.17153550518661
C         3.16455608198211   -1.32376643334013    0.28239043563919
N         2.48782583624282   -2.48299217425945    0.38681622932328
C         4.56840736336699   -1.23881883450389    0.27314122657886
C         5.00431744664985    0.03704791023395    0.03779737868068
S         3.80020897808297    1.12679198910355   -0.39614581864548
N         6.36401337402187    0.20428035975177    0.02750610350886
C         6.87761418164269    1.19917713243947    1.01526245708197
C         6.72253846375904    0.45929959059757    2.35997747975242
C         7.53937628614441   -0.74130073637902    1.88917284996685
C         6.91880771953493   -1.12972144867584    0.53671272791347
C         5.70462178380440   -2.10313742322507    0.66561663150354
C         8.79325652857184   -0.00661530868296    1.47482270204582
O         9.90026092114279   -0.51654242913874    1.38458812252871
C         8.39768299381525    1.29206607302910    0.81110314229961
H         0.45941278415172   -0.41886424351184    0.04146134771957
H         1.01896168348167    0.71399402496017   -1.29871322621893
H         1.03295555992405    1.13960640454598    0.37815318304179
H         1.54394559328696   -2.59819543440999    0.03137904357144
H         3.07757500676674   -3.30844022387353    0.34149052595214
H         6.48403169197570    2.19636292595251    0.80332156086986
H         5.74908764453264    0.08025864721840    2.68743335962090
H         7.22246192541716    0.99877877930319    3.17226889292029
H         7.70415171842483   -1.65699312181491    2.45358983146351
H         7.66714095558115   -1.55289207158896   -0.14520812438010
H         5.69564345092518   -2.55171504969880    1.66449137053430
H         5.86828376087547   -2.92625690749220   -0.03840798976017
H         8.61046726357651    1.40289526724817   -0.25368022160332
H         8.83155377357602    2.17657561536909    1.28489613405562
