30
 energy: -45.975586581533 gnorm: 0.113257204838 xtb: 6.4.1 (79825abcba525fcdf90b791dcacef51065a7a4e7)
C         1.15018602661062    0.11527257624479   -0.07202657062916
C         2.62860109349847   -0.06306170220857   -0.08819671335928
C         3.24383702860342   -1.29052999864917   -0.27005545179109
N         2.57061732634781   -2.45640896737830   -0.25685153745917
C         4.60389753878661   -1.12135047827583    0.04571938632929
C         5.02545994209932    0.17997158213885    0.00004325601968
S         3.74019418219306    1.26336405229964    0.00891687009599
N         6.36886299424156    0.38959573093069    0.16788715941019
C         6.77558681326373    1.13749978698578    1.39446094432112
C         6.68566333392710    0.02569798145703    2.46007638114007
C         7.63204478332016   -0.93930259815924    1.75052849158788
C         6.99110631872932   -0.99781374707229    0.35378273311897
C         5.79010047057807   -1.98805138537916    0.22961856059269
C         8.84125586617933   -0.05774306770677    1.53999170275688
O        10.01543302167523   -0.39004619373705    1.47284027361823
C         8.29133908722611    1.31104547092636    1.21199036026761
H         0.86546026126801   -0.23793024658559    0.92357544438715
H         0.66536919438618   -0.45453244982434   -0.87096298492417
H         0.74749307811341    1.13367963984151   -0.09686235104668
H         1.63760259103500   -2.33252781533505   -0.63718592970792
H         3.10035275222179   -3.32140863215526   -0.30562600208451
H         6.13903007652112    2.02476801409038    1.43636845282315
H         5.66860432227178   -0.36424553645053    2.56980744662576
H         7.10709620076263    0.45408737249809    3.37640354483881
H         7.88899172136076   -1.90535123045337    2.18057305990637
H         7.66756794889664   -1.06650509126865   -0.50747984042096
H         5.67202902381986   -2.76584127622252    0.99129779664040
H         5.92551823071923   -2.50413440040252   -0.72708512278281
H         8.45525806163184    1.45646767231808    0.14273509586494
H         8.74472764199571    2.14406280190566    1.75568303852748
