30
 energy: -45.978068552235 gnorm: 0.125077360701 xtb: 6.4.1 (79825abcba525fcdf90b791dcacef51065a7a4e7)
C         1.07718557426695   -0.07003638270877    0.12542643397963
C         2.56421927388733    0.00993684672973    0.13595076889167
C         3.33594332127564   -0.64160098741012   -0.81178692495385
N         2.88437348382359   -1.29563974943435   -1.89852096464759
C         4.68599739173777   -0.42747584563828   -0.48072123768781
C         4.87025463216669    0.38109447184614    0.60808709940755
S         3.44622602625269    0.86372321496488    1.35971073680177
N         6.18500494576567    0.49159242558579    0.97696030433728
C         6.62320223566416   -0.09849539430890    2.27659390677335
C         6.96847284644556   -1.54524828888265    1.86742399496025
C         7.93438311897204   -1.03991154920105    0.79879201930210
C         7.01551901113694   -0.20286644987707   -0.10683960256511
C         5.97010242148366   -0.98190637494807   -0.96625993861589
C         8.85183607573189   -0.10134248725321    1.54781309939101
O        10.02525543271120    0.17220310029695    1.34315118372569
C         7.96640458102494    0.59320604114260    2.55637089077697
H         0.69401727012040   -0.07188755773747   -0.89937744730644
H         0.63936688877766    0.84231796110389    0.54249822002812
H         0.65938956502600   -0.98623785439152    0.55664880268977
H         1.97891785078009   -1.74247562320458   -1.79361581688864
H         3.60184991667222   -1.79700968475225   -2.41337894921549
H         5.88750198974450   -0.06345649853223    3.08388756683362
H         6.19058324367849   -2.27661531245027    1.62556467276198
H         7.50786221533124   -1.91480689702349    2.74677838684590
H         8.40415561084026   -1.79126833265665    0.16713799380131
H         7.45219608063999    0.55088324808264   -0.77412259165893
H         6.10014992842555   -2.05330680043126   -0.78121396865616
H         6.17098881831929   -0.71134991217855   -2.00856769057162
H         7.89045415207203    1.63222317167417    2.23079631753195
H         8.35614967240166    0.48648159539970    3.57214125893376
