30
 energy: -45.983210881584 gnorm: 0.115280041903 xtb: 6.4.1 (79825abcba525fcdf90b791dcacef51065a7a4e7)
C         1.06199973588315    0.05227533663837    0.06839735437945
C         2.53685705432888   -0.15044251899246    0.02996465504725
C         3.32695787904743   -1.18247841943400   -0.44847956600886
N         2.74918764911195   -2.29902716791195   -0.93032324469039
C         4.70342444370118   -0.94038629768774   -0.29090019451573
C         4.92654636545332    0.30017725750991    0.24244673201442
S         3.52399298961761    1.13798813188958    0.63822826783659
N         6.24384447166082    0.64919500778871    0.38300962071576
C         6.74076035081222    0.90240086369503    1.76801120829913
C         6.74094635832240   -0.45801072191791    2.49533921712286
C         7.64948390446319   -1.05008340915998    1.42094095144164
C         7.01351759762979   -0.64060803463450    0.08191102238638
C         5.97587126771537   -1.68123996825297   -0.44608294784313
C         8.86946251984957   -0.16178206644636    1.49991745204015
O        10.03856423688015   -0.50794602747852    1.41626124705577
C         8.24516301993348    1.20247358115132    1.68056093919489
H         0.41641243258183   -0.61638922595943   -0.50879335850195
H         0.82531781277025    1.03540608547515   -0.35048224424956
H         0.61492869566188    0.15216741837845    1.06342520952466
H         1.93804780103381   -1.97078822386488   -1.44493826534521
H         3.36120391472020   -2.80826287183218   -1.56067082246722
H         6.12688331796315    1.71498564485517    2.16432748102336
H         5.78760047949375   -0.95506387765595    2.70167797781563
H         7.27969109130220   -0.38275289727506    3.44658522906993
H         7.92276259915906   -2.10341368136585    1.41603081368262
H         7.74394176145839   -0.40690014589813   -0.70291584991478
H         5.98926736502669   -2.62529583430950    0.10856315941722
H         6.19976966679554   -1.91945940567709   -1.49158885271100
H         8.56209165249818    1.90082523381923    0.90391103111251
H         8.57416073951119    1.62035466768200    2.63566129035355
