30
 energy: -45.974759667413 gnorm: 0.128066904395 xtb: 6.4.1 (79825abcba525fcdf90b791dcacef51065a7a4e7)
C         1.17979875353824    0.20859075663936   -0.17018015152362
C         2.64492720736755   -0.05818189792198   -0.17276081984971
C         3.18485375539357   -1.33347740807911   -0.15360453527567
N         2.59508754665721   -2.52905592570058   -0.34186156171181
C         4.57536865071012   -1.19302666049403    0.00400878980052
C         5.00955479759354    0.10056035798738    0.11056996282138
S         3.75597433988797    1.21610766115074    0.20964722052815
N         6.36032157819437    0.32028369091689    0.17378684710991
C         6.79867113951480    1.11323332549389    1.36052545660177
C         6.64712977440257    0.04018695233506    2.45840178874527
C         7.65063326276481   -0.85635518422129    1.73762781550260
C         6.94621076066292   -1.07870664795479    0.38874933793133
C         5.74770406512064   -2.06762346484699    0.23374095435020
C         8.85418840241811    0.02013782269357    1.47901725032924
O        10.02925418079191   -0.29333853257718    1.35827096189964
C         8.29953566421081    1.39634535941857    1.19268079819961
H         0.62751435423538   -0.13387229122219    0.71001606552920
H         0.75873227726264    0.01571586630648   -1.16190935879456
H         1.06917253198104    1.29217415479209   -0.05381769683680
H         1.65611034488912   -2.43832035014495   -0.71683643612926
H         3.22219147987055   -3.24205045410335   -0.70186495585013
H         6.14181490043039    1.98643892947138    1.34447934679871
H         5.58449873667963   -0.22247932053301    2.47650134016568
H         7.02438215484551    0.36382813088403    3.43498544190743
H         7.84029908290044   -1.83294404715326    2.17866192738067
H         7.69414279867590   -1.20868072737581   -0.40358674200009
H         5.62538243510124   -2.64608236759522    1.15541115128091
H         5.89595527261986   -2.84919907023949   -0.51933457061955
H         8.48867106135300    1.52150944643645    0.12502653773798
H         8.78050636688812    2.20355246443555    1.75139777222590
