30
 energy: -45.974018965277 gnorm: 0.117111587604 xtb: 6.4.1 (79825abcba525fcdf90b791dcacef51065a7a4e7)
C         1.14193760377741    0.15409029832498   -0.42733861512461
C         2.56667615182620   -0.05865810176765   -0.04966962117775
C         3.17688069564130   -1.29815376565758   -0.14748155273527
N         2.44562588253891   -2.42778042261349   -0.19087385986912
C         4.55040391766356   -1.15553364853375    0.11933956221160
C         4.94147329562274    0.14951588811006    0.25030027945399
S         3.70084329016522    1.25172479504566   -0.01746596930998
N         6.29507822302529    0.35759721998937    0.28637616558348
C         6.85408634798680    1.12055102720238    1.44165941951278
C         6.86390773225419    0.01504136180102    2.51752077978722
C         7.77691020375768   -0.90164178941369    1.70731052303581
C         6.93512533048913   -1.02710042695757    0.42638010501601
C         5.70386209430297   -1.98008165232112    0.54562770421313
C         8.94750694493700   -0.05201058848147    1.26970970158103
O        10.03870295225114   -0.39838515048049    0.84199179114300
C         8.37169320133435    1.34282006088525    1.35009253953946
H         0.94313770430923   -0.15438153095333   -1.45805103810064
H         1.01038018308737    1.23715464209971   -0.51502435243286
H         0.40953473789289   -0.31107216937774    0.24134762676806
H         1.50995064172812   -2.47655823173866   -0.58157817790912
H         2.95075610611531   -3.30781080669168   -0.15071209362290
H         6.19908063274704    1.98726541969074    1.55989351148661
H         5.87673969709068   -0.43653413985731    2.65924136190102
H         7.28702491902319    0.38430453267122    3.45847516746430
H         8.12680055964034   -1.86735806265264    2.06672509739153
H         7.59599939591225   -1.31330751309977   -0.40152268631674
H         5.46142250817060   -2.38704736252463    1.53287396931983
H         5.90021509609692   -2.77132189253888   -0.18604569808725
H         8.58792609538593    2.01997347954970    0.52182298679835
H         8.82993528249892    1.80413492522183    2.22888920254741
