30
 energy: -45.976720704850 gnorm: 0.110938740903 xtb: 6.4.1 (79825abcba525fcdf90b791dcacef51065a7a4e7)
C         1.24399748180836    0.33676408294960   -0.29207572022383
C         2.67490921654578   -0.04879575628840   -0.14506912799814
C         3.19306124599821   -1.31540839207918    0.06818474885709
N         2.53886722977728   -2.49073297000955    0.12576280807757
C         4.59154480093134   -1.21979272846619    0.18308234412527
C         5.05561575673742    0.05674606059950    0.01477564204434
S         3.85240791336095    1.22294089534502   -0.11941283672254
N         6.41463203509837    0.22738500045004    0.04310795136218
C         6.81532634896901    1.17878766993508    1.12178538854724
C         6.61857161202980    0.29182561607721    2.36850573927619
C         7.52734019629946   -0.77357438326093    1.76073549185534
C         6.90263422855856   -1.17640889566324    0.41441042626792
C         5.68686009521269   -2.14746962132957    0.54607925479516
C         8.79714935639552   -0.05283826985262    1.37113500926105
O         9.95023633100329   -0.45158086575385    1.30027286363750
C         8.33965160908952    1.34453377306987    1.02239070426160
H         0.86472314874064    0.48803324010198   -1.30711907221253
H         0.84756855893659    1.16496384033540    0.30370427576856
H         0.77316619616765   -0.56595598964993    0.11208480879607
H         1.56662175888149   -2.68415371377245   -0.09297097412343
H         3.09884914559220   -3.31292034900634    0.32984896706121
H         6.22292354993338    2.09200232859177    1.02533055575141
H         5.61055753375252    0.01581508144986    2.69443777184576
H         7.13945192578441    0.75375520178488    3.21472282613262
H         7.82824263578253   -1.61393855137210    2.38319497055021
H         7.64396910045255   -1.51023101033251   -0.32252746682678
H         5.57147949013227   -2.52024869108264    1.56920012489487
H         5.72537001001596   -2.97076246257936   -0.17549366168589
H         8.62043002008565    1.57021436872707   -0.00792750858421
H         8.72172712046611    2.12374498302153    1.68716809275026
