30
 energy: -45.975014552054 gnorm: 0.125141708622 xtb: 6.4.1 (79825abcba525fcdf90b791dcacef51065a7a4e7)
C         0.98277455396791   -0.01267057966772    0.20125842244366
C         2.46023753845019   -0.00429401093627    0.01468760041066
C         3.28895676529737   -0.64968558288715   -0.88806400511410
N         3.00351148480898   -1.38107522102260   -1.98180212638082
C         4.63061754465327   -0.47539970713202   -0.50378435593648
C         4.77635859029016    0.24297151556164    0.65204548609057
S         3.33026278513987    0.88027382889153    1.22508890979874
N         6.07784262978164    0.41541921228489    1.04351289529531
C         6.64763827856198   -0.06170629200238    2.33848478349496
C         7.17260657310850   -1.47827107305263    2.02626968939705
C         7.97651725054536   -1.04503694133109    0.80301256753051
C         6.97910982873849   -0.21521200996247   -0.02263469788803
C         5.95338460039800   -1.02689230846835   -0.87555041564400
C         8.90742648522755   -0.06275667338416    1.47546915812503
O        10.07378089896125    0.20126300692338    1.22340236417737
C         8.03862501395631    0.55748152755726    2.54507842888999
H         0.43353310442261   -0.19544404182717   -0.72716608659416
H         0.71912675190153    0.87054693640169    0.79154748460268
H         0.73618992018967   -0.94151729108176    0.72696858183785
H         2.04172035279688   -1.22057175327385   -2.26413834775989
H         3.61795633138648   -1.22844519475918   -2.77576975153175
H         5.91377889074972   -0.00338102436060    3.14610734232678
H         6.38295410281524   -2.21317816758647    1.83954414666157
H         7.85359609716953   -1.79347080806067    2.82481899864995
H         8.47055694644666   -1.90164929870624    0.34875485369872
H         7.49236672396721    0.50135544781067   -0.67623281702523
H         6.11055998462023   -2.05759766343698   -0.54089296874986
H         6.17108615251312   -0.96503442994425   -1.94734388338789
H         7.96135122562613    1.64567331081949    2.57959330484643
H         8.47029578881220    0.24396234291813    3.49925181401826
