30
 energy: -45.974910409918 gnorm: 0.114720759255 xtb: 6.4.1 (79825abcba525fcdf90b791dcacef51065a7a4e7)
C         1.20195387904328    0.35797632235159   -0.32782616976073
C         2.61803203223848   -0.10089709896987   -0.28385389648226
C         3.25048503486456   -1.32291616886738   -0.12593336359953
N         2.56088645184692   -2.47924770384872   -0.13084020952382
C         4.62520794936124   -1.14680039613031    0.11327410818270
C         5.01465479122376    0.16507377842455    0.08966067499955
S         3.71892392936337    1.22238877564157   -0.08031754703493
N         6.35380410681083    0.39302850018243    0.26731589761595
C         6.75947546809388    1.04146585215794    1.54959033847055
C         6.85649659913123   -0.12931359154725    2.54938438831559
C         7.75753789179960   -0.95672957824585    1.63624171330697
C         6.87615306917281   -1.04271107114406    0.37890629650875
C         5.70914551782189   -2.07103192370130    0.51693510782222
C         8.84395027091465    0.03919531124080    1.30231636030343
O         9.99874317381375   -0.26444716508809    1.04177601683491
C         8.23079146177930    1.42024423000897    1.32008050858887
H         0.43025140424700   -0.36210099614026   -0.03971451206942
H         0.99211542638263    0.44949586386760   -1.39816093786504
H         1.00642083294232    1.32074963881463    0.15670013952352
H         1.66588811583905   -2.58426616949740   -0.59824410372539
H         3.04248365860430   -3.37305195264834   -0.11081297555081
H         6.05867245896192    1.82345806981740    1.85219394301476
H         5.86559723144118   -0.56228449377988    2.72014892651282
H         7.40059280500339   -0.00328760007197    3.49217565421676
H         8.14653737990236   -1.91546344478406    1.97346387669145
H         7.38923688804296   -1.15098190188167   -0.58499954673614
H         5.54104419255944   -2.40095270408166    1.54744345572344
H         5.74365353895586   -2.87903932601691   -0.22191184672343
H         8.55079976707363    1.94538949887712    0.41833719729707
H         8.52123195269163    2.02135834596060    2.18575187985231
