30
 energy: -45.979302693512 gnorm: 0.111384726955 xtb: 6.4.1 (79825abcba525fcdf90b791dcacef51065a7a4e7)
C         1.08781135654909    0.23804419803420   -0.50466070500312
C         2.51371828767504   -0.07178921132844   -0.20705628743532
C         3.19472463822908   -1.26343098453821   -0.02135083195019
N         2.63470754009795   -2.47936805375258   -0.16470619961967
C         4.55052906903424   -1.14202180436848    0.33242054999328
C         4.89864213110395    0.17926106432710    0.41159838994120
S         3.65992949101199    1.21866784978724   -0.04769516640334
N         6.25324038410102    0.38331496434480    0.39513097567716
C         6.82736101815154    1.06917759183629    1.59064171966129
C         6.92503148587223   -0.08993500169050    2.60387625297414
C         7.78122542507265   -0.94177356261110    1.67026756843076
C         6.90347974380665   -1.00364072834337    0.40897483982764
C         5.72881780144289   -2.03204324399823    0.43995774932174
C         8.90408992195608   -0.03336071017152    1.22571633812653
O        10.05364562644171   -0.28615372235692    0.89671170572562
C         8.28555595019538    1.34500379456300    1.19251357663713
H         0.43465988883126    0.04690611557217    0.35202113177198
H         0.65568436821630   -0.33197239327785   -1.33313634040842
H         0.91937931223465    1.27861324652545   -0.80261720245636
H         1.92106770093940   -2.42619066731802   -0.88471149521873
H         3.31047954660343   -3.21870706412621   -0.33183789126168
H         6.25318782568367    1.97180525019912    1.81378758995781
H         5.95583672589652   -0.49613104108249    2.91075111532587
H         7.50438461324887    0.20779454173177    3.48506049850593
H         8.10621486854666   -1.83827399359999    2.19455647368338
H         7.37564097642935   -1.04417407704455   -0.58072858571898
H         5.66002573371614   -2.59848519041634    1.37455092413217
H         5.71172220746633   -2.76912786457190   -0.37021235057765
H         8.45156010523449    1.91432409812175    0.27619437460200
H         8.87071014534507    1.78392058546453    2.00493428072100
