30
 energy: -45.973501189375 gnorm: 0.127091716689 xtb: 6.4.1 (79825abcba525fcdf90b791dcacef51065a7a4e7)
C         1.16461818246017    0.11707853577432   -0.07121008361792
C         2.63539871268374   -0.10213199292182    0.00958012838922
C         3.30541295937400   -1.31158952184998   -0.07141156013362
N         2.53898207940002   -2.40532867041606   -0.24167975083326
C         4.69595783194149   -1.12042911857945    0.01771027978799
C         5.05971831457307    0.19672910666827   -0.05983184942875
S         3.73906038154997    1.23443309906479    0.00915435607791
N         6.40059606049947    0.39364911268111    0.14045541160985
C         6.80990212329939    1.15698675335736    1.35661830456980
C         6.56844627048034    0.03501664092173    2.38744703981045
C         7.55607631737628   -0.92266573401601    1.72581758821241
C         6.98831029717963   -1.01204991667481    0.29936163386876
C         5.85152831775013   -2.04601379350123    0.02178679791300
C         8.79227294801712   -0.06216576125174    1.60325302555757
O         9.92739072228814   -0.45766961140278    1.38254730335075
C         8.33279022300257    1.35996422083314    1.37965216209198
H         0.68899682479036    0.11989906132391    0.91409227543947
H         0.68538453307021   -0.64033584573832   -0.69944816206461
H         0.99590226937645    1.10054041640553   -0.52317140227876
H         1.55679861036112   -2.47288797909881    0.00584533470211
H         2.93794843703541   -3.31937250137140   -0.43291968082794
H         6.17639362218488    2.04448492810315    1.42886506093575
H         5.51276001959437   -0.22811407297796    2.50908031478008
H         6.99627399863367    0.37714540167145    3.33649390240531
H         7.81398132272558   -1.91709906103729    2.08470111081520
H         7.80537835694202   -1.00857647255176   -0.43308616325565
H         5.92254229237174   -2.78031907702010    0.83098763946793
H         5.94106798477466   -2.54025422746043   -0.95169696085801
H         8.65946518390289    1.72447082741544    0.40407937083242
H         8.64877536829867    2.17912346330702    2.03096798921634
