30
 energy: -45.981377067370 gnorm: 0.121905612619 xtb: 6.4.1 (79825abcba525fcdf90b791dcacef51065a7a4e7)
C         1.09623675656472    0.13520900328298   -0.49151904234916
C         2.55538739134926   -0.06131456392508   -0.26783707606156
C         3.15884320491555   -1.29202202265249   -0.06917524403062
N         2.60887783141895   -2.49413886516367   -0.32437335819023
C         4.50210130369619   -1.07320601524887    0.28561666600276
C         4.93062005281975    0.22621439131833    0.25217142962143
S         3.67053266839971    1.26101413952695   -0.15660154387380
N         6.27225101090135    0.43877951852194    0.43018290394574
C         6.84668630803543    1.09236700303601    1.64349057364787
C         6.95420127683806   -0.04990459058916    2.67469467127323
C         7.76358939174112   -0.91555112852535    1.71247373649336
C         6.91476529988939   -0.95184057157037    0.43055910394947
C         5.70624445603001   -1.93411052998175    0.31642991398968
C         8.95021738861119   -0.06931769598725    1.31314008388870
O        10.04445720428836   -0.44250155198708    0.91690819175769
C         8.33715527562058    1.31160256364824    1.34123801758417
H         0.62170359865569   -0.75843075852056   -0.07526115570418
H         0.75560469967968    0.20303828080885   -1.52949472618920
H         0.66518599968804    0.96825685859206    0.07430592162072
H         1.59435635005044   -2.52967453880271   -0.32355463032860
H         3.00934932981091   -3.22044100741813    0.26157097348547
H         6.31145171506119    2.01449884680887    1.88307860577558
H         5.97920319203347   -0.47552031234902    2.93302755960821
H         7.55506773368196    0.35947210825555    3.49454150067706
H         8.02824920216341   -1.94695857930778    1.93689270780411
H         7.49786702297259   -1.04934866613033   -0.49387402564093
H         5.73581345212764   -2.59056927765808    1.19235275607191
H         5.78740367249898   -2.60941424255295   -0.54225493875976
H         8.55451972011817    1.78982636201894    0.38448383439744
H         8.66491905564839    1.97463684419558    2.14624561533755
