30
 energy: -45.974942227419 gnorm: 0.120953748066 xtb: 6.4.1 (79825abcba525fcdf90b791dcacef51065a7a4e7)
C         1.14153029270266    0.20638022861628   -0.08195923583862
C         2.59076468444077   -0.13631487129364   -0.07451266430512
C         3.23787380718985   -1.35720391448028   -0.16909603166642
N         2.61657482320373   -2.54826962700945   -0.07952527139492
C         4.62721267081715   -1.17199361065336   -0.05275723519917
C         5.01426860139086    0.13644899361421    0.05404129973946
S         3.70086694415331    1.18507577686784    0.08696565158864
N         6.36628353580055    0.35522953499206    0.08623304479209
C         6.84593931954761    1.14849442999860    1.25667276086743
C         6.69885736494798    0.13512796136288    2.41044095490316
C         7.60082559150511   -0.85290102901386    1.67520343714793
C         6.99862874530694   -1.02776194514592    0.27095737558793
C         5.82247397478922   -2.03621844116239    0.07582198938857
C         8.84552040245993   -0.00941821433572    1.52375721625025
O         9.97230123633080   -0.48014222130015    1.57285443078930
C         8.36264731219029    1.39382995700371    1.23861943009235
H         0.55560928574089   -0.04874081486857    0.80610281535814
H         0.61768662394998   -0.15904727185791   -0.97082091097615
H         1.00093551619239    1.29238270201748   -0.05433485215135
H         1.63175567266856   -2.49287214776248   -0.31948286307785
H         3.17752954605370   -3.35165422475711   -0.34621979998508
H         6.25694411044269    2.06844749913041    1.28792367710523
H         5.64385448289737   -0.11717308056582    2.55815348274619
H         7.09031404251091    0.50227243891354    3.36581795140343
H         7.77268395197887   -1.83383830662146    2.11387960479467
H         7.79928693982280   -1.05737560961087   -0.47881695422428
H         5.77012592915607   -2.69819042845447    0.94651481863689
H         5.77756669786255   -2.56548629455672   -0.88220747670518
H         8.46388734709841    1.64115015254554    0.18036282428431
H         8.68006523277434    2.15984571276990    1.95104241538196
