30
 energy: -45.968700419756 gnorm: 0.127475386076 xtb: 6.4.1 (79825abcba525fcdf90b791dcacef51065a7a4e7)
C         1.12141141495109    0.30545543930603   -0.49246077360131
C         2.51330742576064   -0.11409089380962   -0.16937862260826
C         3.15300338609453   -1.33182726047422   -0.00759634220669
N         2.49590239313441   -2.50494083271132   -0.07612159451333
C         4.51286978545487   -1.18987461142114    0.32212000719796
C         4.92497083792783    0.11524285818521    0.33114064272838
S         3.66880229839691    1.17083678885424   -0.03421958603414
N         6.26580919138625    0.39518382357441    0.35626377604131
C         6.81994698626991    1.07942413286334    1.56208900966439
C         6.96686286712052   -0.06221777892195    2.58912124637536
C         7.81775140524035   -0.94467189188438    1.67940392357791
C         6.95661005988743   -0.97120553671563    0.40549029569221
C         5.76629596328863   -1.97787190645918    0.31506056349686
C         8.93884461114531    0.00595355205333    1.32851124033384
O        10.06019997342561   -0.37162967373902    1.02253782230913
C         8.29456960933478    1.37019779288816    1.24293799270375
H         0.36103065439111    0.10069550870783    0.26710413362602
H         0.78403218344915   -0.35255690488157   -1.29944251385750
H         1.06936929720086    1.35978210131191   -0.78506678734049
H         1.70039452579854   -2.50580795223745   -0.70674332603290
H         3.17104640481790   -3.24817050417396   -0.22782261193240
H         6.23473494168625    1.94455099761679    1.88347351028148
H         5.94211926167456   -0.39997218352271    2.77440047287480
H         7.51492563737845    0.40849817534059    3.41303404047247
H         8.27837228224395   -1.89308107634824    1.94877067219076
H         7.48738065490916   -1.08029807763798   -0.54869702770223
H         5.65960671537552   -2.61948283315668    1.19597261931594
H         5.82093539882166   -2.55178359507342   -0.61639071993411
H         8.37943476758008    1.78139536640823    0.23544688707794
H         8.51499711211786    2.21668275201722    1.89864807537496
