30
 energy: -45.973495418055 gnorm: 0.120251932474 xtb: 6.4.1 (79825abcba525fcdf90b791dcacef51065a7a4e7)
C         1.19553943524889    0.20519323499145   -0.68891435504661
C         2.55501754505609   -0.05730255947311   -0.14056142826798
C         3.15138858075754   -1.29645637045607    0.02407670303288
N         2.55939934627729   -2.47623609002958   -0.24114292305326
C         4.53848663949526   -1.15521365157704    0.20876437791127
C         4.89121774756256    0.16138506513829    0.33281624045902
S         3.63861678887208    1.26591740830044    0.14117803204204
N         6.23945933732815    0.40280219567938    0.30439084873249
C         6.79169690391302    1.05573545281515    1.52831071027311
C         6.97022298050290   -0.10772609582328    2.52541221607932
C         7.79582177007761   -0.96753082578983    1.57176414800933
C         6.90379000759073   -0.97745104117300    0.31904498501166
C         5.73124365173861   -2.00182017731031    0.43823089613142
C         8.88220317643477    0.01802425738124    1.20827961836517
O        10.02104784257455   -0.32702999965194    0.92971713110713
C         8.27447862898144    1.39746450774029    1.31500767183083
H         0.48835260412449    0.10124046168098    0.13941225806607
H         0.87717835151456   -0.53113757599742   -1.43355365216409
H         1.27993176167687    1.23652129361230   -1.04831904846932
H         1.56445845215602   -2.37836575694946   -0.41729996745812
H         2.90901363751869   -3.32535526909047    0.19243458797143
H         6.28460312437404    1.97609252602562    1.82831801917625
H         5.98300112367319   -0.55624124817335    2.67618704817082
H         7.42192161825725    0.20614303578113    3.47316382499771
H         8.16209277333750   -1.94282103584710    1.88619152620703
H         7.65120316220554   -1.21677467443505   -0.44789036767492
H         5.83157257835153   -2.42361573322098    1.44375357466267
H         5.90881680589272   -2.82834429453925   -0.25839472889175
H         8.39915269138990    1.90069151035226    0.35451674004118
H         8.74187431815016    1.90531344591543    2.16277621885187
