30
 energy: -45.983115613030 gnorm: 0.111472097014 xtb: 6.4.1 (79825abcba525fcdf90b791dcacef51065a7a4e7)
C         1.04187137301925    0.11411489493389   -0.15085801318431
C         2.50265403923584   -0.00743355815526    0.11204058366171
C         3.32262294222939   -0.75822992128392   -0.71392678357872
N         2.82513216747004   -1.45498202422134   -1.75301884149964
C         4.69333189362879   -0.63577833339262   -0.42364653085822
C         4.81854547620852    0.13327720361483    0.70157140437819
S         3.40264366883074    0.67928022715522    1.42464043323866
N         6.10936756157782    0.45619048447812    1.02768636121825
C         6.64793217338639    0.00395675960889    2.34476677222982
C         7.06483657338233   -1.44454986522086    2.01652139758106
C         7.97482383685622   -1.06644720080880    0.85063815794417
C         6.99404107491708   -0.24806134843325   -0.00576954367294
C         6.02062906766534   -0.98766273836555   -0.97729474373089
C         8.87964411647403   -0.03391865337597    1.48218344383282
O         9.99691658347034    0.27081617834109    1.09171501846818
C         8.03836594883680    0.62451775924777    2.55096215965650
H         0.73829394914447    0.41739074490678   -1.15729175743193
H         0.71516732075280    0.95650481758094    0.46693499366814
H         0.51487385711297   -0.82449392031040    0.05216533439806
H         1.98067835135479   -1.00860689067966   -2.09676914628234
H         3.50777444554210   -1.63114142897648   -2.48390211882688
H         5.95941727000883    0.16462469150497    3.17803663896990
H         6.18617941102191   -2.00428174906289    1.68011733102251
H         7.57360308341178   -1.94640057719073    2.84723260127053
H         8.36305968658763   -1.81824032650429    0.16632095174543
H         7.58710157096081    0.50058990868962   -0.54604040140328
H         6.21816629281937   -2.06025751553367   -1.07513506895462
H         6.23310104367698   -0.52283596962138   -1.94618757846471
H         7.97027027755827    1.69129172165928    2.33032634994036
H         8.51321554123527    0.50056589070145    3.52781147383245
