30
 energy: -45.972909700662 gnorm: 0.133925585717 xtb: 6.4.1 (79825abcba525fcdf90b791dcacef51065a7a4e7)
C         1.12552838803147    0.26326962210408   -0.10444844491058
C         2.58039689062551   -0.04799274107199   -0.16963363788906
C         3.23273540548952   -1.26598647802696   -0.07365430357793
N         2.71260371870922   -2.50666710429429   -0.02029230865679
C         4.63447845334150   -1.15134086196028   -0.06511800884140
C         4.99822184183596    0.15605858759961    0.11275187064016
S         3.73956364415689    1.24046205446631   -0.14332373254424
N         6.34413002146204    0.40273082259980    0.18005410380074
C         6.81041527435787    1.06702145146126    1.43327555802378
C         6.68807200589430   -0.02722681930752    2.51372851539759
C         7.59635353294983   -0.91521605806346    1.66707513134441
C         6.96723551272125   -0.99405421579393    0.26596148865887
C         5.81315917981286   -2.03241026533175    0.09765552098934
C         8.80420151353922   -0.02685332614100    1.47845037674901
O         9.94912275421351   -0.42482023187978    1.32223140349679
C         8.30964560264015    1.39659635029906    1.36539784068254
H         0.75750233134945   -0.09218901665758    0.86263498128088
H         0.54949886442420   -0.29681490110084   -0.84776523063670
H         0.87118830895971    1.32844466139563   -0.12983820026651
H         1.73980726233191   -2.61412820901504   -0.28980382552383
H         3.29536653787937   -3.25821040368746   -0.37637257325644
H         6.10425594107146    1.88986308442606    1.56920299078621
H         5.62452506124885   -0.25709973489045    2.63427819910740
H         7.15426408542889    0.24570275072614    3.46711878060047
H         7.78596853710636   -1.86252945133168    2.16792790704940
H         7.85718953261125   -1.06108250496919   -0.37245930488667
H         5.64196564623942   -2.84891677739618    0.80692495446291
H         5.98696987954120   -2.61541284214002   -0.81331068511120
H         8.56238665226953    1.78895365549868    0.37873600676234
H         8.51008356214412    2.03569094936266    2.22937903298222
