30
 energy: -45.974968348216 gnorm: 0.126016598319 xtb: 6.4.1 (79825abcba525fcdf90b791dcacef51065a7a4e7)
C         1.16085893334641    0.22812193972873   -0.53870007069177
C         2.57962575148986   -0.07416711490262   -0.20180580977726
C         3.18075988589636   -1.31640268822187   -0.08452487054671
N         2.53893221649197   -2.47740048261810   -0.31433838095291
C         4.55372821166650   -1.20081843212424    0.19778402647622
C         4.92660095976571    0.11510105358013    0.24840116570716
S         3.69764875778601    1.23488065104253    0.00041690346178
N         6.26735276850677    0.36729130855065    0.37342228482337
C         6.80774836725844    1.08673339913978    1.56491029309043
C         6.93078590385222   -0.04619073948736    2.60465565099820
C         7.76928707377937   -0.91740880360736    1.67287399940915
C         6.89342827999468   -1.03022366801698    0.41379951333156
C         5.74097939356084   -2.07855676612276    0.30767861784415
C         8.86863736399027    0.04455115953668    1.28592909823830
O         9.98723065310461   -0.33262699344131    0.96952371198609
C         8.27605248175111    1.43462378275770    1.27512781243376
H         0.53218763438683   -0.26165553069251    0.21092303350726
H         0.92489486597308    0.16786517639464   -1.60580578558933
H         1.00948584150728    1.25436860309173   -0.18679761962148
H         1.53699209729756   -2.57446325591892   -0.44553331444040
H         2.90511611603700   -3.18763008466591    0.31232440359849
H         6.19578474243771    1.98094837145636    1.70663443416098
H         5.97564750343705   -0.56289226209718    2.74334977330775
H         7.49723054310567    0.14002283253073    3.52402694691256
H         8.14853687619139   -1.84756506998444    2.09142976233504
H         7.51007164848050   -1.03831096669981   -0.49382243830734
H         5.65487086207139   -2.57833210366791    1.27817496713517
H         6.05492951759107   -2.87763090131848   -0.37267235883758
H         8.40835580525264    2.02477620573569    0.36653559512298
H         8.76293985287198    1.97034820211147    2.09428641615383
