30
 energy: -45.987955405236 gnorm: 0.103041276898 xtb: 6.4.1 (79825abcba525fcdf90b791dcacef51065a7a4e7)
C         1.06552873269804    0.13303030141420   -0.39634215304106
C         2.53551492945761   -0.06078009348115   -0.25722408721179
C         3.19659390545661   -1.25575378957035   -0.02640216495860
N         2.61500233184117   -2.46839573652322    0.03623686576412
C         4.55928065180125   -1.03676243311540    0.24420397858180
C         4.98933782057511    0.25857588909764    0.14227385355463
S         3.66885396991390    1.24830998117796   -0.17784315405974
N         6.33870193874767    0.45913512900610    0.26812338255360
C         6.85301855681125    1.07189234417818    1.52878789567287
C         6.84782599735299   -0.11829379879214    2.51019287457259
C         7.72767747216913   -0.97428769816805    1.60274700862616
C         6.90445186776194   -0.96399686775027    0.30377892457943
C         5.70874261937957   -1.96831729391809    0.29906281045185
C         8.92158627221404   -0.07327725281609    1.38727927413964
O        10.11672576245023   -0.31818181724110    1.31454669008866
C         8.35312172610100    1.32489827935449    1.31292437966786
H         0.53609094996656   -0.74029879730717   -0.00386757586475
H         0.73333576533046    0.24241107999227   -1.43350569414345
H         0.70105170247578    0.99357269416912    0.17510745956659
H         1.61335386546164   -2.55866610618840   -0.10185334811710
H         3.19872202676120   -3.25580609404712   -0.22924239236148
H         6.31393382272252    1.99286999709958    1.76414600977776
H         5.87244643857484   -0.60619677441365    2.60554113306928
H         7.30165113951189    0.23604281559603    3.44253771800459
H         7.84820486130917   -1.98462854433081    1.98861556381034
H         7.56037990003337   -1.04982970224657   -0.57171133804578
H         5.67481797716653   -2.57924822590922    1.20717389937204
H         5.67694227975062   -2.62992745139269   -0.57341775005185
H         8.55750053163728    1.79438480444080    0.34900759088334
H         8.80276705890721    1.96166067660109    2.07936649010920
