30
 energy: -45.969853343656 gnorm: 0.119556759332 xtb: 6.4.1 (79825abcba525fcdf90b791dcacef51065a7a4e7)
C         1.10465744824787    0.16882307942391   -0.09354160060946
C         2.56516962760350   -0.06918115257093    0.07389150484536
C         3.24105460961499   -1.23859247515413   -0.23257695360719
N         2.66625801005210   -2.33396175238505   -0.76403522328673
C         4.61662106533136   -1.02933608219999   -0.02732413017540
C         4.95184282887553    0.25335998948650    0.31261323818694
S         3.61757395528698    1.27359125850258    0.38029466320673
N         6.30559894849890    0.46297152759728    0.32851835640815
C         6.71423753904382    0.92025128340815    1.68983305482422
C         6.78174530090449   -0.44162510638988    2.41126298478238
C         7.76633758945715   -1.05486408061541    1.41887286113643
C         7.01591717342390   -0.87294289390908    0.08887351609616
C         5.83286159288771   -1.86600991029464   -0.14047284448099
C         8.88079205521608   -0.03538019486566    1.46691696808219
O        10.06952682918774   -0.28660386573342    1.33492084156601
C         8.20147212645508    1.30321113840178    1.64090858606751
H         0.64220841058366   -0.67994806165539   -0.60615530198036
H         0.85071482862818    0.96318995371287   -0.80242730085631
H         0.78003789836414    0.55081822120032    0.88043643917209
H         1.80428818585534   -2.28057992201709   -1.29758531115099
H         3.16586960427130   -3.21785550399514   -0.78255764643457
H         6.04200736092629    1.65218398559064    2.14435118456353
H         5.83137766487731   -0.98099136561199    2.47752972619367
H         7.17265805594637   -0.20622848797153    3.40753315471149
H         8.27483931012397   -2.01545857768930    1.47267089829819
H         7.66068052103694   -0.61781042591756   -0.76158500988002
H         5.69966095151481   -2.67540465428779    0.58491737080428
H         5.96016507508595   -2.33240165394930   -1.12344494686995
H         8.44130013747744    1.89181866630552    0.75358250716660
H         8.57157275800454    1.85030839905835    2.51199462810684
