30
 energy: -45.969104258251 gnorm: 0.130218769468 xtb: 6.4.1 (79825abcba525fcdf90b791dcacef51065a7a4e7)
C         1.14649302976650    0.11852807107186   -0.09392733294751
C         2.62590661742723   -0.01675810944804    0.01003796295070
C         3.28240475657907   -1.21545153816983   -0.21448496089904
N         2.68247085540277   -2.39991940129266   -0.43761739902847
C         4.67299379423706   -1.00752600666124   -0.24808788898802
C         4.96922172052537    0.29396557276174    0.05458184566532
S         3.67167007721659    1.34390192169646    0.25387928907830
N         6.30886623441031    0.43750496373271    0.30276453754112
C         6.73179377251326    0.99443708901372    1.62194113919521
C         6.75544363021310   -0.28435653170742    2.48441044838950
C         7.71819188714914   -1.07106159857478    1.59867171379545
C         6.97629233990547   -0.94060165615415    0.25789221858024
C         5.82651160864782   -1.92693385369710   -0.12099488368485
C         8.83544649016460   -0.05721880513331    1.51189998465955
O         9.93709340605523   -0.42090671534912    1.12754096956682
C         8.23104506212518    1.32662608387657    1.56888812692623
H         0.68996582666015    0.64127514897363    0.75186388115374
H         0.74698770897413   -0.89723248581617   -0.01237668955195
H         1.06149722655671    0.71138460031676   -1.01111227158679
H         1.71169370006746   -2.40070614287123   -0.73444797313164
H         3.21057606544262   -3.19169317118808   -0.79176733313339
H         6.09088339548303    1.82792192642278    1.91983800685492
H         5.75265127675976   -0.72303539428708    2.50618747895621
H         7.16691652087284   -0.16078065627767    3.49247674924612
H         7.91236838457939   -2.02486146002935    2.08526326282098
H         7.66565899914237   -0.88023821323699   -0.59370740729903
H         5.52988680425172   -2.70097541039411    0.59449559714340
H         6.11295298358414   -2.37784789738890   -1.07733658932044
H         8.43314115208121    1.88360850335620    0.65223572602123
H         8.54268337597475    1.96024890721275    2.40344457458472
