30
 energy: -45.982735875162 gnorm: 0.101546747660 xtb: 6.4.1 (79825abcba525fcdf90b791dcacef51065a7a4e7)
C         1.04240576900188    0.25996724209163   -0.14007574484459
C         2.51274501091952    0.02590452420389   -0.10701724748789
C         3.25089831185479   -1.06593128860609   -0.53279952275022
N         2.82192670534441   -1.94442293922570   -1.45849313081464
C         4.60589266270804   -0.96797449921151   -0.16880113653685
C         4.87819732319884    0.12165669755642    0.61337166208469
S         3.51712734437225    1.08442766743771    0.82851490171239
N         6.17796408969138    0.52504776730093    0.77062178316765
C         6.70437402868616    0.54247532087817    2.16771048630011
C         6.99085893290209   -0.96153978731866    2.35636546078947
C         7.87205661511553   -1.07296179139640    1.11483497218617
C         6.93976238458326   -0.56071434697149    0.00418003037206
C         5.89868422763635   -1.61943197692469   -0.47922002103747
C         8.85599811214508    0.03688424857028    1.40425730016097
O        10.02865500218874    0.01435057496310    1.06075369763567
C         8.12337332689581    1.13141347911688    2.14509607762103
H         0.76753270821971    1.22092280749615   -0.58510785329902
H         0.57725211112570    0.22662117060365    0.85014879437829
H         0.69445676349967   -0.48422459274672   -0.86467312860780
H         1.84595489858570   -2.21844077497453   -1.51244264911736
H         3.52030085765754   -2.65804188090192   -1.64354591281769
H         6.00851138153150    1.08085683016888    2.81588187686471
H         6.08800931826234   -1.57840039579742    2.30296649279015
H         7.52565650972684   -1.25615035677370    3.26629664866598
H         8.46780780078865   -1.96143304353668    0.91506165968632
H         7.43216215946965   -0.14456738404789   -0.88377054354266
H         6.07932544152040   -2.53240034281948    0.09776416320333
H         5.97828229238521   -1.80720010056677   -1.55549548276104
H         8.22524329172692    2.06438965340563    1.58786916121889
H         8.54978079806713    1.18524720824768    3.15026242243557
