30
 energy: -45.973185557350 gnorm: 0.127964936618 xtb: 6.4.1 (79825abcba525fcdf90b791dcacef51065a7a4e7)
C         1.00741426892202   -0.06284718727683    0.04079421935906
C         2.49529651311199   -0.02842287562844   -0.01209330747661
C         3.36159949062112   -0.84266657757571   -0.72258090046041
N         2.98722105025203   -1.65528375787340   -1.72864599560066
C         4.68841861891341   -0.48892743312433   -0.41841044745501
C         4.84527108522578    0.44097862556137    0.57351309160908
S         3.34593230750783    0.94050415800459    1.14638615540348
N         6.12782163104745    0.54417062096550    1.04389713962349
C         6.66068319509631    0.03292205313154    2.34156869804778
C         7.03555600152809   -1.43938931434993    2.07418251209651
C         7.95052498732937   -1.12681936775043    0.89288917022898
C         6.98712438550441   -0.26083999914248    0.06399629570085
C         5.99037636352765   -1.05549868820969   -0.83789799424549
C         8.89698645218793   -0.10198715179136    1.47391758132480
O        10.04055533301105    0.14934415439528    1.12361847277381
C         8.05414794321420    0.66879045546733    2.46341267441752
H         0.65242658030447   -0.18430223367426    1.06854748965076
H         0.55632384299608   -0.75552449051294   -0.67665968615598
H         0.64071312969824    0.93102486887136   -0.23791705748536
H         2.02227408570797   -1.41973118556455   -1.93819221651163
H         3.46487395283130   -1.40590245578878   -2.58938965640748
H         5.99171412399174    0.19861787923267    3.18964352443847
H         6.21406389408994   -2.11067630162169    1.80394116105384
H         7.51573569179729   -1.98666567071540    2.89314201090276
H         8.42496711841222   -1.90539931284265    0.29881177318262
H         7.50386390967881    0.41238810023642   -0.63158709145038
H         6.04449775794153   -2.13564580591755   -0.66641530667936
H         6.21468659597915   -0.71263006427342   -1.85381512340169
H         8.20292540921383    1.74035973952363    2.31874613845088
H         8.33746119625337    0.40932369319042    3.48688293968587
