30
 energy: -45.973398820602 gnorm: 0.120948723517 xtb: 6.4.1 (79825abcba525fcdf90b791dcacef51065a7a4e7)
C         1.04262755334468   -0.31277185064519    0.11353018151416
C         2.51809169870764   -0.12705563482817    0.19284440069341
C         3.38713366961491   -0.66632488343631   -0.74108333070030
N         2.93656737127128   -1.45859315762198   -1.73202928004086
C         4.71473209511078   -0.23853295832832   -0.56059359706245
C         4.92521563537313    0.46830328169962    0.59236758261822
S         3.44844649763884    0.80076682248431    1.32335798293430
N         6.20388534636037    0.66077179291692    1.04492174082594
C         6.64910240349367    0.07754933054093    2.34526835988640
C         6.85508715721809   -1.41394907259181    2.00951764301466
C         7.77576927091655   -1.14087560852665    0.82288480067642
C         7.04382092743010   -0.07199534535096   -0.00589199966231
C         6.04580098204814   -0.66048950666631   -1.05280803017723
C         8.84030180205144   -0.29388452440366    1.48094329325826
O        10.05842189526285   -0.30557879713529    1.38259007328781
C         8.07214322093100    0.65657408904031    2.36983936400172
H         0.77211243302650   -0.29420519385632   -0.94643265677514
H         0.47670134048992    0.42638252123565    0.68920618735371
H         0.73568942297738   -1.34761820528237    0.30011361233378
H         1.96869387900389   -1.41155034240309   -2.03456054992270
H         3.57066018391809   -1.78716895744655   -2.45396226798348
H         5.93594202401273    0.33472536550651    3.13233150053510
H         5.91698386147208   -1.85427393687868    1.65655573622364
H         7.15952421858285   -1.94408775647382    2.91894034737034
H         8.05735860215700   -2.02601505461058    0.25592304905185
H         7.65937429737216    0.71794132618032   -0.45442980161499
H         6.13957743569406   -1.73577370387698   -1.23726157148074
H         6.17211441653572   -0.16791750559830   -2.02305507368393
H         8.03098806643455    1.66373407273411    1.95120003496758
H         8.51958853246143    0.71858698360957    3.36534319466003
