30
 energy: -45.984048993687 gnorm: 0.118164485730 xtb: 6.4.1 (79825abcba525fcdf90b791dcacef51065a7a4e7)
C         1.15191377245542    0.16486690126387   -0.58009676894419
C         2.55050418284067   -0.05553249336277   -0.11842082212356
C         3.13152446419645   -1.28106075884400    0.16222520711873
N         2.58195676205824   -2.50407560583211    0.04022967286865
C         4.49904226331589   -1.09400889340522    0.43242276773235
C         4.93942768196475    0.18612403442264    0.23102603394901
S         3.70146459578056    1.23786444694346   -0.20142692539347
N         6.30339078416227    0.30791896880577    0.19082319302923
C         6.91764650803439    1.16796839307180    1.24546668045708
C         6.88925167274823    0.21456763537444    2.45788017225317
C         7.71305254887903   -0.86810412291470    1.76542356379485
C         6.89772968062517   -1.07447466637372    0.47787387462069
C         5.65187798152175   -2.00833437625726    0.59687788213741
C         8.91409815307582   -0.06642390571296    1.31993206677289
O        10.06004602116468   -0.48175401790979    1.23087559150989
C         8.40854979607260    1.29291739762157    0.89544709940456
H         1.06318893705661    0.39242678759491   -1.64658107527234
H         0.65424299381264    0.97951811039083   -0.04466074971557
H         0.62002908176024   -0.78502094577827   -0.45867550420885
H         1.59232246628019   -2.52286991857355    0.26559165357957
H         3.05003161372653   -3.29741510069523    0.46771226424235
H         6.31054931384824    2.07646350294677    1.26205755869078
H         5.85014063885913   -0.08047634663428    2.63593408156371
H         7.17210848418982    0.58192261105470    3.45076533683881
H         7.91365795145949   -1.80731182687565    2.27714260816245
H         7.50872481743758   -1.37098448512271   -0.38401876916980
H         5.63757957564130   -2.41598317862033    1.61308221252049
H         5.73189231306860   -2.87830771196495   -0.06395923909384
H         8.73980586500973    1.49053952469472   -0.12560078410982
H         8.74576502777286    2.12090551697436    1.52457534096652
