30
 energy: -45.972411879850 gnorm: 0.117963974108 xtb: 6.4.1 (79825abcba525fcdf90b791dcacef51065a7a4e7)
C         1.10546810624427    0.24175207066560   -0.49664856628083
C         2.52947687728710   -0.12625637648814   -0.26310095302654
C         3.17879760412217   -1.32435507727103   -0.01569771995911
N         2.57365700746922   -2.49861432638230   -0.27568415375863
C         4.53293712946965   -1.08285032002649    0.27769899808211
C         4.91443807279066    0.23140800141937    0.29825044044051
S         3.62642834163165    1.21152258337219   -0.15576761752857
N         6.27083266750465    0.39246965504493    0.40359970475166
C         6.85204435415169    1.11276264144290    1.57519647387663
C         6.94185055772542   -0.07742573761735    2.55249490033907
C         7.80581184091906   -0.93785883213305    1.63404622773675
C         6.89475922610923   -1.00657306291025    0.39695857169540
C         5.68594707379665   -1.99285059545546    0.46353311069625
C         8.94218523166612   -0.00449483384360    1.28597791295795
O        10.07802507355340   -0.27850584796514    0.92763102434950
C         8.35047411476871    1.38348487691922    1.36943859553707
H         0.47937645990548   -0.62351866783982   -0.25924559973311
H         0.85300063918626    0.50826623081800   -1.52779108843382
H         0.97509645636255    1.14008697054516    0.11648192703724
H         1.62575532042490   -2.57264577522287   -0.63137928758355
H         2.90332912703425   -3.28428375622381    0.27682179635955
H         6.19091645904188    1.95993894090580    1.77371058358325
H         5.93283259440305   -0.46844287366203    2.71830875943238
H         7.45486041210638    0.08002667007148    3.50790488109872
H         8.29166398202146   -1.78326971314148    2.11720061209651
H         7.43902456827033   -1.24834080813552   -0.52467891289879
H         5.70512708797935   -2.59055977356257    1.38082755691562
H         5.80657018546425   -2.71350009234122   -0.35260165517263
H         8.68764572756749    1.90463958870456    0.47164299526089
H         8.70860175067869    1.74373733434445    2.33744869176741
