30
 energy: -45.977687916055 gnorm: 0.114010918572 xtb: 6.4.1 (79825abcba525fcdf90b791dcacef51065a7a4e7)
C         1.15922978577318    0.18969785932906   -0.44855345544373
C         2.60770449221989   -0.04529457745909   -0.19463364554344
C         3.19598967886051   -1.29694560581627   -0.12009162737577
N         2.53912501772988   -2.47120534702470   -0.16821389142666
C         4.58666400202532   -1.14228893769895    0.02205715334679
C         4.95878626780865    0.17268735831145    0.09690781864049
S         3.68628205758734    1.27032799609982    0.13745549450010
N         6.29394601236673    0.41588122165627    0.28412643592382
C         6.80818309194316    1.14901602486734    1.47884045242367
C         6.87130929987865    0.00619383330319    2.51310263706810
C         7.65754594081024   -0.96662299091468    1.63801318863083
C         6.91918861596968   -0.98258093588525    0.28905129962276
C         5.75724594832313   -2.02422184195553    0.23181656538336
C         8.84560414594390   -0.05372250712697    1.44104925341072
O        10.01581161654413   -0.40042513400457    1.37750056071205
C         8.30223340364742    1.32985548647431    1.16895445863053
H         0.58693094259954   -0.70127208967393   -0.17343356327004
H         0.90000272372198    0.42472836149497   -1.48565832804955
H         0.68472334606085    1.00316065040101    0.11095820399501
H         1.52994917544067   -2.54313398730369   -0.25132636287775
H         3.10632025068304   -3.25207958623590    0.14761513668482
H         6.20042671261039    2.04419832753496    1.63209336331879
H         5.90127105941098   -0.29630203737571    2.92056790847541
H         7.51861084302641    0.13505320171651    3.38784521487336
H         7.93088442175216   -1.98121176835977    1.92104269818187
H         7.61841794797062   -1.01095164534830   -0.55615015518150
H         5.66768786339167   -2.64913755601271    1.12653044847690
H         6.04367264391200   -2.65488596591272   -0.61682004752066
H         8.64759663958379    1.55180532863263    0.15762544660993
H         8.72002567456701    2.06359529559418    1.86332920856537
