30
 energy: -45.983308362054 gnorm: 0.117261012271 xtb: 6.4.1 (79825abcba525fcdf90b791dcacef51065a7a4e7)
C         1.10254533802328    0.22334676915452   -0.17153219169777
C         2.56369984061957   -0.05744206686019   -0.10859681513900
C         3.19053719214472   -1.29222957251621   -0.08327779357192
N         2.58261133758903   -2.49235173795130   -0.13624797542922
C         4.58511055437991   -1.16020841107849    0.04256186194359
C         4.96853266293050    0.15051151582217    0.13334204971067
S         3.69529458290956    1.24527786810888    0.05538379681241
N         6.32284444485285    0.35505388316697    0.16245633970483
C         6.84084112019842    1.15106639296869    1.31454640868427
C         6.76253056874605    0.05000462940286    2.39216238691472
C         7.66652835310293   -0.94652739749373    1.67102848931941
C         6.94030938019599   -1.03815698951071    0.31849959723357
C         5.75437699334046   -2.04977202841844    0.22575395425166
C         8.86955806305228   -0.05610600079535    1.46238131365480
O        10.05074159759190   -0.36958190920178    1.44953654128414
C         8.36120766156182    1.34304889588835    1.20253356256652
H         0.56718146621837   -0.69914926166223    0.07225248884509
H         0.78271021539292    0.49356479559924   -1.18282455185912
H         0.89436219461607    1.15529262818796    0.36518753548290
H         1.67620034607931   -2.60918884739709   -0.57815916741112
H         3.19401216910887   -3.29900083105419   -0.21828000402253
H         6.32547938366500    2.11250289065993    1.37972132333141
H         5.70368483545940   -0.19785505241361    2.51832568625458
H         7.16811141774665    0.41186473071127    3.34365597310430
H         7.71549318038726   -1.94097539852167    2.11021596376440
H         7.64609385951288   -1.11750014149105   -0.51796019898850
H         5.71120707734733   -2.68411985254353    1.11726527507209
H         5.98037886440115   -2.68610000057048   -0.63678385016814
H         8.58940214589651    1.73807225768824    0.21096526438337
H         8.82866660773081    1.87540371858436    2.03509662945126
