30
 energy: -45.972560968861 gnorm: 0.126442104070 xtb: 6.4.1 (79825abcba525fcdf90b791dcacef51065a7a4e7)
C         1.04732190075234   -0.01617379188727    0.17251165270417
C         2.52699553181382   -0.17828607868170    0.12711031659521
C         3.36454717349303   -0.73113320790446   -0.82742287723449
N         3.13675906709928   -1.61545343863368   -1.81674750100601
C         4.68636452380220   -0.37102010020115   -0.50927589338271
C         4.85222093327860    0.29380384635780    0.67551989051630
S         3.37260634181326    0.67712131127856    1.37518727182380
N         6.15127707278758    0.62743867540529    0.95478064400867
C         6.61468343717165    0.14836323953541    2.29082303066120
C         6.85641248639860   -1.34879088416653    2.00829454930301
C         7.81363780986838   -1.12600174740003    0.84021627546776
C         7.02624591518441   -0.14122478332121   -0.04032487350667
C         6.00961511343398   -0.71364913602182   -1.07820470125485
C         8.81000991929566   -0.16180863946813    1.44124760134133
O        10.01612272190536   -0.09318616310932    1.25628940117167
C         8.06040677459987    0.63020199470137    2.48737841858318
H         0.66819613745802    0.12197455842359   -0.84445593012192
H         0.70989237187139    0.96200098832184    0.52935888083039
H         0.42562688384128   -0.68071423383803    0.78227610892380
H         2.17807012843664   -1.87090018969707   -2.03164229583610
H         3.73256778021816   -1.60005543177568   -2.63893839912570
H         5.93567325424007    0.54034775430763    3.05207130621102
H         5.93825335375982   -1.85139945172366    1.68755427795977
H         7.31829108781141   -1.99780523750432    2.76077520001110
H         8.27988275074774   -1.93820393058405    0.28600215918433
H         7.65878828219531    0.58725854853808   -0.56310039500678
H         6.21942635899873   -1.78634512922682   -1.14420307356372
H         6.15784081571046   -0.23837932389814   -2.05396560328412
H         8.45603592585302    1.64744058348341    2.48217294765783
H         8.30174945323153    0.18194260736329    3.45479663982152
