30
 energy: -45.978888732903 gnorm: 0.121362069799 xtb: 6.4.1 (79825abcba525fcdf90b791dcacef51065a7a4e7)
C         1.08649996187930    0.28555371709862   -0.39592280640833
C         2.51970351752734   -0.06921951724119   -0.20139973551155
C         3.20940703763281   -1.26717958301302   -0.11498780381262
N         2.59996876899531   -2.46435733985609   -0.20456064359315
C         4.57641874641975   -1.14387447448288    0.19189145925541
C         4.91803101118726    0.17992673221154    0.25585772392674
S         3.62527066744749    1.23806119491443    0.06918099341831
N         6.27810837150987    0.33570144856483    0.30848297299034
C         6.80005291024573    1.08587650178862    1.48919431683003
C         6.93003872865567   -0.03241698896422    2.54382652808622
C         7.77904979434216   -0.94898846166379    1.66667253981761
C         6.91981610327419   -1.05257234050199    0.39540851305049
C         5.73299874031089   -2.06242632816669    0.29509982872093
C         8.93720775672629   -0.03088748080013    1.35135506300552
O        10.13210433013927   -0.27818937698519    1.28286692150602
C         8.29024556352433    1.32661287926263    1.20233123610514
H         0.33595599554448   -0.24269467824352    0.19962884239426
H         0.80936627928040    0.21753948799527   -1.45261363628049
H         1.03279193842651    1.36865040109855   -0.24117014143484
H         1.81053017496050   -2.71111563970306   -0.79313038798457
H         3.14784220711173   -3.31717546928654   -0.14325060104366
H         6.15051640183331    1.91172615711382    1.78966111558403
H         5.97726578881730   -0.53935310289194    2.72752570548034
H         7.36675707468695    0.36508889138477    3.46688923674893
H         8.03798583184497   -1.93056325110142    2.05868412095677
H         7.54064572844984   -1.19504624649133   -0.49810355650331
H         5.71234674139253   -2.78239136970501    1.11988893556399
H         5.78668104144993   -2.56394394333042   -0.67729920168178
H         8.27746495835591    1.67528634983032    0.16812268160298
H         8.84726349659115    2.10035617695710    1.73724535561356
