30
 energy: -45.978200575512 gnorm: 0.112561973298 xtb: 6.4.1 (79825abcba525fcdf90b791dcacef51065a7a4e7)
C         1.10815945765287    0.28802117208288   -0.26603583886603
C         2.56317954525480    0.01970037602040   -0.09663636915326
C         3.30914639217978   -1.04228376338709   -0.58036089456112
N         2.73569810009228   -2.06690630271556   -1.23913139926837
C         4.65754860485811   -0.91676021340719   -0.20068294023546
C         4.86279790633093    0.19545360498903    0.57009161045736
S         3.51036615689487    1.16931065324621    0.78976604704314
N         6.16849287591596    0.55033655604911    0.78471766004480
C         6.64324053547887    0.42328340594539    2.19459004559556
C         7.00713100641626   -1.06903952238403    2.33700404816361
C         7.89580197260676   -1.05816052559742    1.09584824303201
C         6.96534385968759   -0.50069922266778    0.00561479579802
C         5.95005484857625   -1.55393811517660   -0.54053391414171
C         8.85789882321953    0.06655507669873    1.40088733564870
O        10.03889703149044    0.00179518731630    1.09319258240427
C         8.02524912380100    1.09214795153271    2.13466464439497
H         0.90821422470437    1.33640329659955   -0.02528452749611
H         0.44592128401329   -0.26980090089790    0.40351599493810
H         0.91419236915500   -0.10800282516432   -1.26876866593747
H         1.85073177414478   -2.29947731327599   -0.79951496936039
H         3.35372853455951   -2.86558938496836   -1.13251671799965
H         5.88109377874043    0.78089834694100    2.89133210668181
H         6.13754924886352   -1.70504637658725    2.14250794385284
H         7.57807114395424   -1.32149681875921    3.23759900432341
H         8.37898774931678   -1.97944109932410    0.77649949074479
H         7.50263781150824   -0.11586517740633   -0.87034754421767
H         6.23669914787478   -2.53299548728258   -0.14262067424230
H         5.94827267678167   -1.58257456058246   -1.63558567542840
H         8.04151704665691    2.01982709010715    1.55979888811462
H         8.41962849255818    1.26666760683091    3.13919865854463
