30
 energy: -45.974501263216 gnorm: 0.111930141149 xtb: 6.4.1 (79825abcba525fcdf90b791dcacef51065a7a4e7)
C         1.01092791271122    0.00053686306529    0.02310377753025
C         2.48539417265088   -0.14705737157731    0.17122832226293
C         3.31106579406642   -0.77710000993054   -0.74505706860604
N         2.91062365793783   -1.41819601414510   -1.85920018443737
C         4.66002079447091   -0.59270790463632   -0.39232487986320
C         4.87634811726120    0.23640178384753    0.67492386224397
S         3.41465833090938    0.73128466932809    1.34146714323884
N         6.16573738805939    0.63679218458516    0.90732103073308
C         6.69931067471716    0.21302986400710    2.23585143387150
C         6.92679088481759   -1.29899567044322    2.03150544604453
C         7.88932873368378   -1.02954449525527    0.87771208284650
C         6.95487314671171   -0.24903145580209   -0.06181786767193
C         5.95249402802359   -1.05636547133469   -0.94604083131125
C         8.89326277264503   -0.07107421206663    1.47530353902037
O        10.09731141925479   -0.14845121482040    1.28060805911027
C         8.10963904093645    0.78728982769648    2.44107806253625
H         0.61327131579105   -0.60248485631117    0.84485702713733
H         0.65050323871982   -0.16774353159366   -0.99660220213032
H         0.73130170891450    1.04556591204193    0.19530957920468
H         1.90628254727278   -1.56469886290762   -1.87799208845251
H         3.57440494214031   -1.81390014884979   -2.51801399279702
H         6.04011710229392    0.52289402832448    3.05050084257389
H         6.07063093204169   -1.80594330223956    1.57488731234565
H         7.32975629012266   -1.73853710645409    2.95085348155399
H         8.31103245091777   -1.88771937844784    0.35818165874019
H         7.60745368102014    0.36699122327921   -0.69328184890568
H         6.20810302018433   -2.11971098610332   -1.00093709077683
H         6.01874000057328   -0.79383218796289   -2.00747822115145
H         8.15867350570292    1.87268971327352    2.33702721732738
H         8.53614694168714    0.63439354393988    3.43596223684706
