30
 energy: -45.973660838089 gnorm: 0.124259612307 xtb: 6.4.1 (79825abcba525fcdf90b791dcacef51065a7a4e7)
C         1.12179265431936    0.18529214224893   -0.63247677900597
C         2.53715412714206   -0.06163037649869   -0.24061344666822
C         3.17811318823840   -1.28485746927912   -0.13500453601577
N         2.55724001492680   -2.47381184465878   -0.25152438038395
C         4.54194714890467   -1.13809624991410    0.17566912646355
C         4.93292800995021    0.17314849057675    0.20747264750631
S         3.61656536751126    1.21857438032660    0.20707246257479
N         6.26389846345544    0.40610467329128    0.43351400077572
C         6.86662553788862    1.15041561919108    1.57893501422093
C         6.97787665146535    0.04194709788152    2.64600880634428
C         7.80114451330229   -0.89812224450566    1.76918394743518
C         6.93429094540061   -0.96964370972811    0.50088825843835
C         5.73665151180013   -1.97010915847157    0.44493251821268
C         8.92327417584117   -0.01306609183620    1.27809840225701
O         9.95751730107202   -0.45470951231146    0.79964368080577
C         8.32352548179512    1.36722979720285    1.14149616628502
H         0.49013304094775    0.02961658198807    0.24719112605385
H         0.82996659253603   -0.60139331219697   -1.33531962467554
H         0.90631855091013    1.17554912790877   -1.04828128318454
H         1.57921699535940   -2.49589442085704   -0.52263436326231
H         3.03300641554518   -3.28068786344143   -0.64372383301700
H         6.22590451462152    1.99066472328607    1.85761699096663
H         6.04765700264685   -0.47715465038821    2.89845814327164
H         7.45029779432105    0.29566183727726    3.60163723787168
H         8.06054967547271   -1.93923098302445    1.95087482145384
H         7.62625728877763   -1.17719891589532   -0.32506299718245
H         5.63868002229200   -2.53448686787030    1.37817022794046
H         5.91350561534722   -2.79048125474753   -0.25910856426107
H         8.51178015086666    1.93415576171785    0.22799794490133
H         8.95959206448786    1.93893851310465    1.82241409850033
