30
 energy: -45.974262171735 gnorm: 0.120070301931 xtb: 6.4.1 (79825abcba525fcdf90b791dcacef51065a7a4e7)
C         1.13099413023408    0.18287752149206   -0.55596171739598
C         2.55674533125123   -0.14983426199906   -0.28335931941404
C         3.22153138565355   -1.36086414858624   -0.18470652449558
N         2.50666964341930   -2.50130089723633   -0.21710361734490
C         4.54796373534150   -1.17646838166992    0.24503229551798
C         4.91236677314977    0.12938710505028    0.43262794960842
S         3.62611983485185    1.15930790407583    0.10012531291881
N         6.24958594652152    0.42488275942987    0.39557658019935
C         6.89487808183449    1.19513501336750    1.49992141740561
C         7.03484809445610    0.14784685515199    2.62389724305325
C         7.70458592505518   -0.87296168567454    1.70753304944579
C         6.86696973011877   -0.97682723853989    0.42194546598929
C         5.73668262331481   -2.05218584360069    0.35518255579053
C         8.89599700230308   -0.05180922058033    1.27174335195474
O        10.02681272897969   -0.46707058503615    1.06573251412339
C         8.39347255861501    1.37201539278836    1.21035881226288
H         0.48625576326340   -0.47340303069719    0.03619758905355
H         0.88591082270100    0.24798707828031   -1.62072433878493
H         0.89149487975448    1.16656443134594   -0.13771354032423
H         1.59986480330574   -2.28776933007427   -0.62037341375939
H         2.99749006995925   -3.21809184780590   -0.74296388230194
H         6.42209455316499    2.15414539535256    1.72570992540353
H         6.03996696421340   -0.24515108520703    2.85685655771129
H         7.54247541139461    0.46036813661320    3.54336641575823
H         7.89070763326144   -1.89868352265583    2.01972440088676
H         7.50102461135779   -1.08876982366471   -0.46661253424335
H         5.76874585905205   -2.70078288256892    1.23685543307351
H         5.76813663546501   -2.77383375667935   -0.46834432477526
H         8.51092529533048    1.86910938572326    0.24577274283583
H         8.77601682002141    2.00052310776628    2.01888755212535
