30
 energy: -45.979140830558 gnorm: 0.112836685117 xtb: 6.4.1 (79825abcba525fcdf90b791dcacef51065a7a4e7)
C         1.04434015579183    0.16783205039465   -0.44727212064625
C         2.49828681572452   -0.09866060538258   -0.26617415671701
C         3.20188508997774   -1.28429318688942   -0.13392014883250
N         2.60947037907462   -2.46730667698775   -0.38331292785499
C         4.54905936427338   -1.13908390921616    0.24308883608150
C         4.90069536337594    0.18088445665696    0.32838770011024
S         3.57936528649681    1.19937029125237    0.12223367231571
N         6.25254897662488    0.40009411040599    0.36422827134847
C         6.91404729860081    1.18148560327112    1.45101955811753
C         6.97389962746777    0.11862912603389    2.56747804591617
C         7.73480228202508   -0.88063473180705    1.69982542819067
C         6.84501353915599   -1.00983688597382    0.45214471076126
C         5.69139054831564   -2.06202982285478    0.43101716596562
C         8.93464707305600   -0.04645177644427    1.31488950993377
O        10.05189920500500   -0.49941401228172    1.11439122902599
C         8.40414910735038    1.35484859386377    1.11866364827237
H         0.54304173756598   -0.55004470595888    0.20877454360399
H         0.64615205294100    0.09640335249247   -1.46431130527666
H         0.68229277486284    1.11041537250884   -0.02254897997638
H         1.71481741583393   -2.49926648779494   -0.86194841891614
H         3.26416590043060   -3.17982089634388   -0.69140421791045
H         6.45361029088001    2.15897273622522    1.61448910975607
H         6.13644962906410   -0.39378543520402    3.05184846769216
H         7.61723302596020    0.46464372080692    3.38428563711983
H         8.06041043255101   -1.82403596825455    2.13362659965974
H         7.47793659178102   -1.13910647179517   -0.43486703485522
H         5.56505815492580   -2.51583962359030    1.41952615409472
H         5.88975721854368   -2.82622208119599   -0.32833943576550
H         8.62053319431215    1.73963474048146    0.12044452550548
H         8.92875982263434    2.05685790363131    1.77215221788487
