30
 energy: -45.973674661461 gnorm: 0.115679281803 xtb: 6.4.1 (79825abcba525fcdf90b791dcacef51065a7a4e7)
C         0.97416150006652    0.13104511567908   -0.15250147628596
C         2.43063900648016   -0.07388462061429    0.08084970630827
C         3.29789345434908   -0.73304921185090   -0.77450871936317
N         2.89543827292298   -1.47139761484399   -1.82595740495181
C         4.62712191185317   -0.45193124187175   -0.41088193194825
C         4.84574822664161    0.30749677478940    0.70657585271536
S         3.33843112617439    0.72019519802583    1.32576987574977
N         6.13821960120405    0.50395485060108    1.11617029622447
C         6.74112020192197   -0.02901363996087    2.37383617671503
C         7.17781045312671   -1.47335232588681    2.05303539785459
C         7.96347767480381   -1.01696611198381    0.82634847198325
C         6.91340182942150   -0.23417195346888    0.02030976213356
C         5.90040327988652   -1.10873274436652   -0.78428934154608
C         8.91813597906838    0.00522566950629    1.39855112164984
O        10.09177921360132    0.20850771944749    1.12493708414986
C         8.11846665805274    0.63744506009061    2.51407926062907
H         0.57022232228634    1.12285937004866    0.07151191945685
H         0.36676880342846   -0.66621671613005    0.28735328030187
H         0.93142273304591    0.14727843674063   -1.24696081292412
H         2.01443846014632   -1.26303366672772   -2.28524063600269
H         3.68055512151780   -1.84811370249393   -2.34835524737784
H         6.18125821553945    0.15761630683163    3.29358040944349
H         6.30136071146633   -2.09990529466529    1.85868232683094
H         7.85750157593049   -1.94014711821956    2.77477025514450
H         8.40239878483275   -1.73034376508148    0.13161787649160
H         7.30855523467084    0.53078432326115   -0.65997527751855
H         5.86874536630762   -2.16436888001174   -0.49500858678454
H         6.01543831739246   -0.98923109832025   -1.86708566636889
H         8.01546881583197    1.71400534824506    2.36665721476301
H         8.60785097912526    0.45530258352057    3.47449994424933
