30
 energy: -45.977589209489 gnorm: 0.114525751811 xtb: 6.4.1 (79825abcba525fcdf90b791dcacef51065a7a4e7)
C         1.16389943797787    0.12278441560735   -0.54691151409619
C         2.61255418426402   -0.03365961062426   -0.23917721945250
C         3.20166059112534   -1.27570516824966   -0.07023118500206
N         2.64022005004129   -2.47348852339019   -0.32077549956784
C         4.53363160393786   -1.05379720396226    0.32310090537550
C         4.94260285151640    0.25221144028918    0.34110710704907
S         3.65758957017201    1.30792313362469    0.09628114491152
N         6.29685033828847    0.45116786192454    0.39834095696005
C         6.85743397070435    1.12810295544461    1.60530941877648
C         6.89664991996537   -0.07931184071054    2.56465157176910
C         7.71297217539744   -0.98238445461535    1.64356525552476
C         6.87470015411373   -0.96685883008192    0.35430835717142
C         5.68729315626353   -1.98096540836037    0.36171312165682
C         8.86812811929053   -0.07624551969899    1.28552704209423
O         9.98519433285339   -0.41320139147200    0.92186443934891
C         8.34839599132427    1.34261991265967    1.30210436531057
H         0.57565845360859   -0.09706348572325    0.34901472033868
H         0.90864569920117   -0.58940820927812   -1.33789300209678
H         0.94506771361533    1.09360740319872   -1.00467430595729
H         1.73571756852114   -2.65205640249811   -0.74563556672687
H         3.02436106277549   -3.36859427542120   -0.03364421743472
H         6.25748447736797    1.99667664113458    1.88787973829503
H         5.91807088616970   -0.46422499489742    2.86916893706475
H         7.36748723237395    0.11357205497807    3.53516001115630
H         8.07850446453522   -1.94726829776831    1.98939083667633
H         7.57453624887797   -1.00424658558472   -0.49003970682024
H         5.62638699659717   -2.61701121290618    1.25097652927226
H         5.74305734998259   -2.71820083350786   -0.44657882838768
H         8.46069153932324    1.70084997394513    0.27722154242970
H         8.73835411804146    2.13788409227218    1.94286042499724
