30
 energy: -45.978030296596 gnorm: 0.120672408853 xtb: 6.4.1 (79825abcba525fcdf90b791dcacef51065a7a4e7)
C         1.05539442900837    0.15013258054843   -0.09717860893445
C         2.53133576551836   -0.03244051832011   -0.01946161203099
C         3.18540325462684   -1.21704517155305   -0.31471373983230
N         2.66374845068339   -2.39250784955699   -0.71325689449627
C         4.56481686203917   -0.99016175855665   -0.16030494609222
C         4.95945900931162    0.26501591388094    0.21655958092916
S         3.62003902516257    1.27695370674040    0.30409286605050
N         6.30630182133258    0.47787845487147    0.34903452161140
C         6.75837673725147    1.00311662629749    1.67154014904635
C         6.86754066906577   -0.29347191653359    2.50019395765312
C         7.73152110528922   -1.06419441499050    1.50528350316169
C         6.92847799185570   -0.91424769394699    0.20230148911422
C         5.76385077036959   -1.85487983290191   -0.24183473867347
C         8.88082868957003   -0.08495607954457    1.44324519436213
O        10.08230750170540   -0.29706826803304    1.51454568605500
C         8.25504474820436    1.29015930391071    1.47530063841768
H         0.99422752334528    1.10483830912042   -0.62806460835192
H         0.62006141321416    0.18903076739912    0.90631360267444
H         0.75816370232854   -0.68015226677766   -0.74695728513597
H         1.75897164905607   -2.56941193698310   -0.28828493051285
H         3.25378673968211   -3.21718886124556   -0.65867637076963
H         6.09911000866409    1.72343990293343    2.16215954187215
H         5.87003683723808   -0.74121322399930    2.55514588564171
H         7.33347823514562   -0.12478494984938    3.47755033869570
H         8.04905095772566   -2.08266562597423    1.71999541943943
H         7.65856240390474   -0.89251321968734   -0.61659803053737
H         5.68349443792143   -2.81313011231316    0.28195195732958
H         6.07062851710650   -2.14050114296891   -1.25389673143739
H         8.48709776887198    1.86481366936057    0.57683103644329
H         8.76864422358646    1.79026253194969    2.30064488458604
