30
 energy: -45.974861002350 gnorm: 0.121512602144 xtb: 6.4.1 (79825abcba525fcdf90b791dcacef51065a7a4e7)
C         1.12719212618077    0.23668770248664   -0.21515088836318
C         2.57043346070915   -0.12144321296468   -0.13408067973985
C         3.21243867743387   -1.29035988080336    0.23972324802921
N         2.46397884546996   -2.40765668248085    0.30397741278854
C         4.60939864753208   -1.14757070986707    0.16089351756162
C         5.02413166426453    0.14715062739467    0.00299024119272
S         3.72768930339844    1.14437283699526   -0.38496738953535
N         6.38504431656861    0.28951568145777    0.07003170638638
C         6.86001562272960    1.18296849609335    1.16794441504977
C         6.69543610428673    0.24208974231487    2.37930171108347
C         7.64099635716538   -0.81694570829026    1.81833656436606
C         6.94396588891706   -1.07873652864651    0.47269973602752
C         5.73650560989405   -2.06812964339315    0.43341487954247
C         8.90163178088110   -0.07731571977384    1.43439620895101
O        10.06531410810390   -0.44750514924220    1.48369024620112
C         8.38371553075550    1.27112688805171    0.99050354308495
H         0.80913831207496    0.67103367293949   -1.16763696300683
H         0.80909098188031    0.89544790455753    0.59901812191132
H         0.54453276414432   -0.64898770413600    0.06056364691035
H         1.56817753344835   -2.24819663876209   -0.14616676735413
H         2.90168345758321   -3.24546538325270   -0.06712127168053
H         6.26898784000680    2.09924670172128    1.24092410980036
H         5.67352433291167   -0.01830962554431    2.67323093438679
H         7.10468927446720    0.76898827455360    3.24859359618805
H         7.86163360103979   -1.70991337789748    2.39983288132166
H         7.70906461574012   -1.35458962506022   -0.26392843544564
H         5.50860664274712   -2.68352336491520    1.31000250130160
H         5.99039686423907   -2.79050082487311   -0.34996286900812
H         8.73608609392346    1.38308324031096   -0.03644564231679
H         8.87649001054985    2.00157953986487    1.63756846912483
