30
 energy: -45.979320255093 gnorm: 0.120505475134 xtb: 6.4.1 (79825abcba525fcdf90b791dcacef51065a7a4e7)
C         1.19081804855699    0.18844254428957   -0.09388364439787
C         2.65362205347122   -0.08804007339052   -0.13309461684968
C         3.28871292933397   -1.31656745414277   -0.05795256077261
N         2.69706433066292   -2.52166225720921    0.04388714259108
C         4.67371235620451   -1.08620564440990    0.02457054719279
C         5.03425191521691    0.22946024816622   -0.08622093334375
S         3.72231973895220    1.27556470015185   -0.18734213245511
N         6.36123237971272    0.44999773813536    0.17326254559215
C         6.73573503089336    1.07865124886139    1.47472730548927
C         6.64460743797961   -0.04762654899957    2.52492720642962
C         7.55687256529699   -0.97507884382681    1.72622403861225
C         7.00353831142353   -0.93565227512604    0.29186316218403
C         5.85702091374835   -1.97435276732871    0.07972759179540
C         8.75095888792856   -0.07562739164544    1.50529572047537
O         9.89827872853185   -0.45446317823336    1.32153690654527
C         8.24105405906447    1.33188975351435    1.29921817145240
H         0.70031732632546   -0.31075141092958    0.74710316230495
H         0.68436195157328   -0.16387831378325   -0.99798361545306
H         0.94295947208145    1.22805639377206    0.14632572364627
H         1.69546572356301   -2.35870299399170    0.01628661229491
H         3.03389425932291   -3.24509380946591   -0.58413783381099
H         6.22074003302414    2.02935671616494    1.63329871913622
H         5.64357251455587   -0.44561588722834    2.71996427011217
H         7.19351814033403    0.27480494710158    3.41684288262774
H         7.77735125589407   -1.97637413627800    2.09092515015955
H         7.82192640047415   -1.00885661021688   -0.43544290565795
H         5.72912125621953   -2.67943038698378    0.90771337511494
H         6.02681642801543   -2.54903708929425   -0.83726150582699
H         8.42808482549092    1.78895619974607    0.32585615078614
H         8.66739683912094    1.80097586046643    2.18987570379784
