30
 energy: -45.976370833900 gnorm: 0.120173752103 xtb: 6.4.1 (79825abcba525fcdf90b791dcacef51065a7a4e7)
C         1.06543995835499    0.06267977474750   -0.50912336473614
C         2.51969223402094   -0.04697040473015   -0.20762236069242
C         3.22155528855749   -1.23398810302851   -0.07861263276398
N         2.67640319701302   -2.46483419150926   -0.05625245804027
C         4.57660784601674   -1.00696850492775    0.22204449350645
C         4.94030062729576    0.31153326687736    0.17183581160030
S         3.60375435115382    1.29948624284928   -0.07979693410250
N         6.27670768312786    0.52000297032096    0.38955627001658
C         6.86156848215175    1.10637815163208    1.63188070508803
C         6.92944230674598   -0.07862902449775    2.61721155811681
C         7.71934713434975   -0.99884345345441    1.69007729510842
C         6.91993469796667   -0.87027017078174    0.38258616826877
C         5.75336618478506   -1.90344940623452    0.28228198828799
C         8.89832567888612   -0.11061013594169    1.36647947228371
O        10.00761229014106   -0.51761422459719    1.05429753844258
C         8.34001920306092    1.28922963582093    1.25549343031624
H         0.43991745700417   -0.65734315501455    0.02691110670257
H         0.93024223641084   -0.32350256651794   -1.52431265389085
H         0.70603071972415    1.09117575907575   -0.39531483751109
H         1.73262102026591   -2.57920039300273   -0.41221996239558
H         3.18610563964095   -3.33539446689953   -0.17266215430363
H         6.36964050674278    1.95588096408033    2.11204471164491
H         5.98434598280326   -0.55125802813204    2.90342939871046
H         7.46073104377779    0.05970285187726    3.56556548697176
H         7.99782027152457   -1.98279536644342    2.06223500882410
H         7.50456154090418   -0.99535821252760   -0.53755321884991
H         5.63727612908719   -2.51861228865055    1.18069779099949
H         5.82353236075241   -2.55721214268795   -0.59386445035076
H         8.49934477903069    1.74856885884610    0.27827968267540
H         8.83041568433683    2.07355498226796    1.83809606194341
