30
 energy: -45.979087907799 gnorm: 0.113004978159 xtb: 6.4.1 (79825abcba525fcdf90b791dcacef51065a7a4e7)
C         1.06255654291505    0.03311466683601    0.08840844534059
C         2.54399098336532   -0.11224611024296    0.13310664572949
C         3.30829023633069   -1.01029458823121   -0.59326918432613
N         2.78311711823059   -1.92540276702074   -1.42959632721087
C         4.67947683274541   -0.77861652226775   -0.38285855398064
C         4.96283737473693    0.34888019216201    0.33942824831308
S         3.55301236483887    1.05825911790916    0.91813458886066
N         6.27695192795040    0.59964732939894    0.63449501030792
C         6.68422184525340    0.58986006046145    2.07091535881387
C         6.77042112348157   -0.92461376176274    2.35138723434314
C         7.79848598658106   -1.11030764797917    1.23831823751884
C         7.03267619623297   -0.57990295044850    0.01466362804657
C         5.96518975708265   -1.39465669072061   -0.78223750066253
C         8.87628108271799   -0.10791752093196    1.58071589042218
O        10.00818777639284   -0.12390803182443    1.12010953429522
C         8.14603823652696    1.01169153980463    2.28555370567520
H         0.67220105920455   -0.98684602237669    0.15434139841289
H         0.64072451644567    0.29031444758196   -0.88828523060312
H         0.71814086114472    0.60248744496309    0.95853708193717
H         1.79299215819504   -1.87660811784801   -1.64820313535565
H         3.36150116796694   -2.41462118852634   -2.10588045015045
H         5.94858786394636    1.13154033809626    2.67060757079026
H         5.84162051165821   -1.45785323325419    2.12447100168254
H         7.08269729710039   -1.14013624709605    3.37940097586360
H         8.15485689026527   -2.11387039850092    1.01455138843612
H         7.72699966700059   -0.21173921329071   -0.75114472633945
H         6.07049356990876   -2.48226789216624   -0.71106010567585
H         6.19333905838321   -1.14078132021777   -1.82312979953947
H         8.34785584277967    1.93152946314510    1.73374602439241
H         8.32567053064932    1.15500671829815    3.35432579672361
