30
 energy: -45.974767339575 gnorm: 0.115349103582 xtb: 6.4.1 (79825abcba525fcdf90b791dcacef51065a7a4e7)
C         1.09896591098549    0.20018083307909   -0.40796171195150
C         2.54967441821213   -0.05788556250812   -0.19203983062114
C         3.17700462766666   -1.29242178717749   -0.16667452460978
N         2.56780644216790   -2.47489786323225   -0.37476293596538
C         4.54015731776667   -1.14964071175010    0.14880664452152
C         4.95786375607366    0.15361467501915    0.16574807004959
S         3.67450430367827    1.23493228699216    0.06845058516641
N         6.28791367255072    0.41579084583298    0.36342585206873
C         6.84820834256586    1.15175424953502    1.53547352965734
C         6.93544730711472    0.00313365619047    2.56152705914600
C         7.74096339277834   -0.96267525867314    1.69626458564513
C         6.88662814847928   -0.99318974051623    0.41786537807912
C         5.70071094561081   -2.00714679003424    0.48026610403342
C         8.85836387189419   -0.06835704946601    1.21121253023321
O        10.05941334635613   -0.25566802405262    1.08463673308131
C         8.32707961922243    1.34560777546082    1.16631348866135
H         0.56277123930998   -0.43094276664155    0.30703664043400
H         0.81401279440288   -0.25563369941738   -1.36140775269128
H         0.88632105587283    1.27473827015354   -0.40164911403964
H         1.55537881139055   -2.54676658535783   -0.39326901854425
H         3.17690939479388   -3.25505056641763   -0.14765429153076
H         6.30882543447594    2.06867899814985    1.78551495690017
H         5.99656123635272   -0.54385876530086    2.69493666889719
H         7.35821808911209    0.28619989988987    3.53205112954706
H         7.82921702079307   -1.94403342320615    2.15817092620689
H         7.53694942222495   -1.15970306006190   -0.45014822258081
H         5.74171246812510   -2.52729129084071    1.44298195724587
H         5.87841957616134   -2.73236862487080   -0.32125403045756
H         8.46691444164566    1.71655768480235    0.14937383672120
H         8.93099340105322    1.93944996807889    1.85748667842422
