30
 energy: -45.976494572010 gnorm: 0.108464939117 xtb: 6.4.1 (79825abcba525fcdf90b791dcacef51065a7a4e7)
C         1.09573378165351    0.07214933035975   -0.45835554175649
C         2.56580710813085   -0.02015528811963   -0.23894731182999
C         3.22052694502958   -1.23232240026793   -0.09661283246212
N         2.58188735584590   -2.41750240447845   -0.08393567757608
C         4.59967654376623   -1.05841424148703    0.11740209271186
C         4.98556188848142    0.25399702094235    0.16109941479122
S         3.70990143209474    1.28176313842547   -0.21587972701251
N         6.31290000487403    0.47822391076865    0.41554283413302
C         6.77459897750748    1.06931766822493    1.70655415517683
C         6.89897416054025   -0.14531668328970    2.64937967267246
C         7.71437564103378   -0.97695522816658    1.66255652256334
C         6.92635498883167   -0.92358052460202    0.34297364588764
C         5.75686933872046   -1.95818525038978    0.32568971511213
C         8.85240265238880   -0.05815722638007    1.28259713457795
O        10.00189962264139   -0.37820943072955    1.01830567790418
C         8.24493136778796    1.32430632562847    1.34046397464864
H         0.68269177406657   -0.90344838784221   -0.18513445483101
H         0.77935236993223    0.21956248874812   -1.49575454305751
H         0.72979379107921    0.96617932518437    0.05810322548868
H         1.58144980448288   -2.47754766188123   -0.24529417474857
H         3.09061139427974   -3.02505714161300    0.55112343295385
H         6.20022739237208    1.94714197697392    2.01270345727791
H         5.97744110772545   -0.65240687819876    2.95292910052657
H         7.49885889993682    0.14187782553359    3.52026210818124
H         7.99127860980561   -2.01038297239155    1.86145815564448
H         7.54090568767881   -1.12122896118116   -0.54435638920731
H         5.81025611840513   -2.56398020201484    1.23630245879195
H         5.88444008162755   -2.67439064279311   -0.49329571439636
H         8.25031364283001    1.76485787246441    0.34186033334032
H         8.79080208694652    1.90274955366548    2.09047022289073
