30
 energy: -45.977673818558 gnorm: 0.123120967768 xtb: 6.4.1 (79825abcba525fcdf90b791dcacef51065a7a4e7)
C         1.09918318985971    0.25926400092092   -0.31493888636175
C         2.53657295067141   -0.07861009454320   -0.12121880616367
C         3.21742328205256   -1.28230899193236   -0.19749506672280
N         2.67104053552874   -2.48599386671104   -0.45299748289287
C         4.60898141274073   -1.18936205332975   -0.01576210598157
C         4.95018905661589    0.13429420056255    0.05317060790652
S         3.66336325530953    1.21239604558187    0.13978362176216
N         6.27472393130401    0.38870577718118    0.29343654719601
C         6.82584720361993    1.18944419947020    1.42672782293595
C         6.78393456199418    0.14266427422270    2.55907974032805
C         7.62173670209016   -0.86453598730651    1.77552541536058
C         6.95519792951170   -0.98002025920858    0.39439767922611
C         5.80204113901995   -2.02354448311277    0.25408028767655
C         8.88723863332297   -0.14017826858996    1.37869403790734
O        10.06751215511480   -0.44991552730221    1.31054774301315
C         8.32900871997365    1.23853957525138    1.11206343671299
H         0.47988240153710   -0.35384711538384    0.34657881179605
H         0.74154006591375    0.17728741207253   -1.34614970844317
H         0.86811696946354    1.28491497018244   -0.00740049979953
H         1.70003487366118   -2.64311939875473   -0.20204557671864
H         3.14848616347623   -3.32327633709694   -0.13326834607471
H         6.21369810770689    2.07598347707058    1.60983222349428
H         5.74288742086028   -0.13560352959297    2.75219567977754
H         7.29472940539288    0.46113514821610    3.47474536315290
H         7.82946668086666   -1.77238051076126    2.33844334429030
H         7.59149138040770   -1.08284199537258   -0.49366222327720
H         5.65521857382919   -2.68957827969835    1.11075721059593
H         6.05222381769933   -2.68966172302418   -0.57878106791961
H         8.64946271235203    1.54881396747044    0.11588930094338
H         8.82872308624729    1.87522639344027    1.84690779447823
