30
 energy: -45.969774922214 gnorm: 0.130238893101 xtb: 6.4.1 (79825abcba525fcdf90b791dcacef51065a7a4e7)
C         1.10638777327733    0.19080247936633   -0.29967582378168
C         2.56957476474988   -0.08128214920676   -0.24648297256771
C         3.21864840338376   -1.30431990785456   -0.21259589225470
N         2.49604864793334   -2.42783029653347   -0.38066400075605
C         4.61364245069920   -1.14309949463513   -0.13449563694708
C         4.96562337706325    0.14800567862117    0.15255339403269
S         3.67081011102012    1.21739903194604    0.07783696306123
N         6.31412404738060    0.31214400304971    0.32989543282045
C         6.84657511980157    1.13762973878275    1.45432291981369
C         6.87310787898159    0.07913731641384    2.57620328689208
C         7.71602833410228   -0.92003661840014    1.78787674774478
C         6.96933746701572   -1.06718865267518    0.45149228944122
C         5.73618044571315   -2.01111807587813    0.28801940859121
C         8.88409082611809   -0.04876450428584    1.38765267059241
O        10.06247603024048   -0.33426333899353    1.23427273691861
C         8.35227085249593    1.35817346181540    1.24181547204951
H         0.78628967802325    0.19689621414446    0.74652895743484
H         0.54956711713059   -0.65328598629686   -0.71859102015485
H         0.90241557608810    1.15946165871741   -0.76874522782234
H         1.48459801608960   -2.36981117754238   -0.44484106156079
H         3.07969060204245   -3.14928326854159   -0.79308449346242
H         6.22866669342331    1.98972027930681    1.74815369458112
H         5.92391131096767   -0.40833649824406    2.82095018586667
H         7.26986603100428    0.44120329404869    3.53133144707425
H         7.76913942131150   -1.88504019157218    2.28803406198353
H         7.63907228630433   -1.26877299585086   -0.39403186105480
H         5.52670941493567   -2.60836138363495    1.18159400513088
H         5.92132225029100   -2.71274367449575   -0.53259354617872
H         8.50856284378808    1.77819592336886    0.24658795212498
H         8.93843004333551    1.98824060424004    1.91599170050151
