30
 energy: -45.973564863195 gnorm: 0.120383964303 xtb: 6.4.1 (79825abcba525fcdf90b791dcacef51065a7a4e7)
C         1.10150203400782    0.16017101880726   -0.31846549139584
C         2.56345440998196   -0.06928734544801   -0.15167276865393
C         3.19123744340790   -1.29732508317223   -0.02487346165855
N         2.64290328168450   -2.51068838599135   -0.22425257106490
C         4.58352521409997   -1.10794841506202    0.03653743265228
C         4.97336335766627    0.20393842363548    0.05135053063816
S         3.65842784635072    1.24982688138005    0.10415208376691
N         6.32079498574682    0.41197024427490    0.18550120342440
C         6.84985635942815    1.15340283396486    1.36856493133678
C         6.81220249109089    0.08024341803967    2.47610129875231
C         7.61923490128143   -0.93020034415556    1.66491434833701
C         6.96219528831932   -0.97626908810736    0.27520178722067
C         5.78209259217964   -1.97672857947871    0.06344531424677
C         8.85755977896084   -0.09249379347239    1.44476980029125
O        10.00142558153664   -0.51066232660245    1.54642008111505
C         8.37075477862872    1.32175196410526    1.22911906357594
H         0.53087197879544   -0.24267300842157    0.52364044216748
H         0.71050163648560   -0.35229984747183   -1.20306530155302
H         0.90216649479170    1.23714185994749   -0.33664567570122
H         1.67456273107959   -2.45107719929085    0.07454563607553
H         3.20807089717522   -3.35422032286778   -0.20805289815152
H         6.44084685297754    2.13756627955345    1.61009995844256
H         5.80693938519365   -0.33511102833121    2.60032955556673
H         7.06723640388999    0.49243415904408    3.45887039733030
H         7.72979539300287   -1.90797825853801    2.12960429707617
H         7.73921316357440   -1.27563490474211   -0.43944175393989
H         5.66913622208414   -2.74834082769165    0.83215113179902
H         5.99662675728870   -2.51351631226897   -0.86703607494942
H         8.57147281977542    1.75644778801488    0.24826449839176
H         8.84061744811118    2.04724947631270    1.89841960674329
