30
 energy: -45.975512225817 gnorm: 0.129934753864 xtb: 6.4.1 (79825abcba525fcdf90b791dcacef51065a7a4e7)
C         1.13451593169307    0.26493388108662   -0.40358211420677
C         2.58992315641277   -0.01551553293490   -0.25896662970758
C         3.21131514180858   -1.24740451335085   -0.13818658302918
N         2.58619329676397   -2.43975924081120   -0.12455747740988
C         4.58833495050381   -1.19794569511960    0.14371819866460
C         4.95776036964388    0.11938317880588    0.18126489784071
S         3.75101337786339    1.25939510995146   -0.08304655803315
N         6.30220674820239    0.29307961764737    0.37910091388419
C         6.79263905321468    1.05403211179236    1.56640687697035
C         6.88318067184801   -0.07511272986485    2.61357443193535
C         7.74696781292716   -0.95178038982569    1.71044223670650
C         6.94020217526811   -1.09928805737765    0.40948294806184
C         5.73886805478553   -2.09669189290210    0.38987994034449
C         8.84829771020649   -0.00929385508216    1.28329357865169
O        10.01358993385614   -0.13818204230308    0.93817252397512
C         8.27668328693438    1.38800103488684    1.34962115959683
H         0.59508644831823   -0.15738895247255    0.44947335169637
H         0.71893289061116   -0.32031329716608   -1.22989985008198
H         0.81148925564288    1.31105904658458   -0.43832801953529
H         1.59516736458552   -2.53834096309695   -0.32119556219308
H         3.05473729667403   -3.18908318402759   -0.62476056710036
H         6.10401985639033    1.87286261411327    1.78895088733736
H         5.85177127710396   -0.35712602891518    2.84845535180947
H         7.26722412235293    0.09818348827276    3.62513641834082
H         8.01834965668411   -1.92229385868682    2.12113131453454
H         7.54316719412527   -1.15754964737395   -0.50546559067187
H         5.67004013309765   -2.64482924722000    1.33532237265181
H         5.87437427506078   -2.74805369604676   -0.48036568678010
H         8.40912891786171    1.81547779626003    0.35410840674021
H         8.72215906712539    2.03747687139346    2.10778555525909
