30
 energy: -45.969382618634 gnorm: 0.129776519919 xtb: 6.4.1 (79825abcba525fcdf90b791dcacef51065a7a4e7)
C         1.17015346736842    0.22993969179625   -0.48373796432223
C         2.57410813533879   -0.08319347057179   -0.09820637038529
C         3.20204098743716   -1.31763928169769   -0.10870158771217
N         2.57946253276559   -2.50108882765582   -0.26527783791224
C         4.57257887733385   -1.08633890377224    0.10630090791738
C         4.97992101864051    0.21890961847274    0.04597721370054
S         3.65536046880786    1.24875372433454    0.14935287380810
N         6.31102236737873    0.36553962222313    0.33496590848221
C         6.84441685407023    1.13150177746605    1.50032435380073
C         6.88962810365827    0.06505379438193    2.61404352587861
C         7.71276999136727   -0.92101712428588    1.78916550389443
C         6.90942326241879   -1.03684488409316    0.48289510849705
C         5.70649199548946   -2.01689579133371    0.30722795073824
C         8.87754115987799   -0.10708961001001    1.27487520236808
O        10.01662075386917   -0.39113535490317    0.93510709292154
C         8.35363289992937    1.31033581979544    1.27404158340467
H         0.52433167159029    0.12291033815298    0.39290523475903
H         0.87915393804631   -0.61753165794528   -1.11233648664346
H         0.94758413068301    1.14718029346025   -1.03967316103788
H         1.61539758554502   -2.34624215194564   -0.54298013911814
H         3.01770346503124   -3.28115787479768   -0.74554875956295
H         6.31658002063376    2.06278972290737    1.72008939361343
H         5.95901744108016   -0.47878839243556    2.80562995233651
H         7.34128200292894    0.39937961497859    3.55479514328376
H         7.85193745125781   -1.94917132808549    2.11740530840994
H         7.55524833760141   -1.20880069429269   -0.38741129025326
H         5.46842351326893   -2.53520286838956    1.24196556052345
H         5.93370709680097   -2.76473359403926   -0.46028329754106
H         8.68309387313659    2.02204446484308    0.51493016724192
H         8.63725564401086    1.82461659683015    2.19607965403667
