30
 energy: -45.981329416062 gnorm: 0.110094098619 xtb: 6.4.1 (79825abcba525fcdf90b791dcacef51065a7a4e7)
C         1.00228490983355    0.04255637141100   -0.07972860353212
C         2.48449561599490   -0.01840932452334    0.05107776935982
C         3.30015721405161   -0.92903223633844   -0.59986642882627
N         2.84602456734647   -1.87649534804291   -1.44173938468332
C         4.65092828544846   -0.71953643680151   -0.26876360969807
C         4.90209547478808    0.35489726474933    0.54101879227930
S         3.44602022885347    1.02793031477694    1.04360953245827
N         6.20665491063864    0.60431574467894    0.87681742633325
C         6.67963208345463    0.26140470359730    2.25085258200723
C         6.90618431719135   -1.25372284470309    2.06977706004765
C         7.91820332199716   -1.06057253946571    0.94335233274318
C         7.00121830286300   -0.32376644561633   -0.04729373705030
C         5.94987253913184   -1.22888431472401   -0.76411735071212
C         8.91434288204648   -0.05225976640822    1.46744747492859
O        10.11087288296081    0.07340080412510    1.25261718584529
C         8.10002797992634    0.83234604173033    2.38283767202031
H         0.44026140670728   -0.64550104446772    0.55882519292678
H         0.75681201752314    0.07613496256593   -1.14586183122329
H         0.64916705663629    1.03309758511457    0.22697524763418
H         1.91446154362811   -1.85174530439050   -1.84434969606056
H         3.55432781642249   -2.24559707086728   -2.06887047894432
H         5.98409328635992    0.56784938947462    3.03604240918743
H         5.96550924036864   -1.73317211507911    1.78035576894049
H         7.21631545993519   -1.86317380647467    2.92602866022115
H         8.40199190613825   -1.96619508353614    0.58278828464907
H         7.50395712421476    0.23491836143755   -0.84680422553114
H         6.14384509307727   -2.28939676273349   -0.57243732184072
H         6.01756822007978   -1.10420584059990   -1.85031906447296
H         8.34910035625144    1.87025543416852    2.15473481332231
H         8.51621745303039    0.64926807763865    3.37699538830865
