30
 energy: -45.979678313080 gnorm: 0.110943675241 xtb: 6.4.1 (79825abcba525fcdf90b791dcacef51065a7a4e7)
C         1.08054777964083   -0.03550896913111    0.26155254819275
C         2.54328364102780   -0.02671891340633   -0.01791523835814
C         3.37099555536008   -0.86952590103102   -0.74098899510560
N         3.01086541139275   -2.08560227464557   -1.19280467950204
C         4.72578936141234   -0.52462704307478   -0.58711057102627
C         4.93333144397615    0.45900112670104    0.34167475423996
S         3.48427156035083    1.17400643362222    0.80505249692107
N         6.25982910310299    0.65373767712325    0.62332571025590
C         6.61153696205479    0.50368805672230    2.06660485412216
C         6.67376500138213   -1.03256519003757    2.19222085806150
C         7.76531428973420   -1.19613403496363    1.13766523667164
C         7.05842156578121   -0.48090381796485   -0.02589516115508
C         5.97626471717160   -1.28389294326574   -0.81491188364877
C         8.80681620382803   -0.17946266178943    1.54425774984882
O         9.99514564364116   -0.20697892189088    1.26010519638221
C         8.07339939530178    0.94422774626222    2.23923621101504
H         0.74442570609230   -1.03417650716622   -0.03294612972191
H         0.52645099979100    0.80247105062650   -0.17294805436738
H         0.93241143069738    0.13174185847152    1.33393967517254
H         2.02609704484308   -2.30948636969546   -1.29587975196880
H         3.68226641388522   -2.66008914397059   -1.69321303265879
H         5.91454654463726    1.03917760164378    2.71595909713556
H         5.73064082639047   -1.51378985793061    1.91393054726856
H         6.97501410073918   -1.31312129304271    3.20775808360847
H         8.21314331391848   -2.18618394961903    1.07884046782031
H         7.83652469564995   -0.04948229453751   -0.66817473287530
H         5.89089480871467   -2.29274667430154   -0.39780355133681
H         6.25913329821165   -1.43055282238677   -1.86297573825515
H         8.31320623597053    1.93059296673802    1.83811253916801
H         8.33215704400046    1.00917868537974    3.29938084198325
