30
 energy: -45.975413865906 gnorm: 0.114846362147 xtb: 6.4.1 (79825abcba525fcdf90b791dcacef51065a7a4e7)
C         1.06614385315223    0.11571958506915   -0.15085846011172
C         2.53820911510537   -0.10914241610393   -0.16624175312806
C         3.24299251450839   -1.30131811894912   -0.18248171459556
N         2.65632643518699   -2.50342772610600   -0.33554473071779
C         4.60405602765333   -1.11428347272572    0.11855684519579
C         4.93344226104729    0.21337160058996    0.07298273978094
S         3.62324566869506    1.24249664790436   -0.15065222910595
N         6.26325128020076    0.47740837782157    0.26980293391913
C         6.87923897683130    1.18301664386862    1.43253426387728
C         6.83684712681081    0.12236728361457    2.55188747831955
C         7.66654373887189   -0.88527876929713    1.76032248550379
C         6.90887100913228   -0.90339468396981    0.42214154611129
C         5.78277357738330   -1.98215597784281    0.34101814093973
C         8.90198591756457   -0.09832476432660    1.38877113869132
O        10.01653400971487   -0.59972877690048    1.39057137308895
C         8.37728827633305    1.29076808888433    1.10825582727957
H         0.67436478621295   -0.27247628019448   -1.09576983346846
H         0.90411300266346    1.17885936384078    0.05286766342649
H         0.55627886058365   -0.32994616219707    0.71015902043444
H         1.64626716631526   -2.51882596307705   -0.43584657297473
H         3.01749788997006   -3.34937010154578    0.09475710395386
H         6.35831636870068    2.11827198191842    1.65194876219410
H         5.79436277138272   -0.11980145631593    2.78229268306288
H         7.33997468459812    0.43506902587880    3.47376539059009
H         7.84785709692409   -1.89922551276786    2.11138869734998
H         7.71117363651450   -1.08741476098044   -0.30348863747913
H         5.64586663567286   -2.68915827573439    1.16591660846637
H         6.15313911023540   -2.55929478934346   -0.51320768312580
H         8.50209849939654    1.44404947687694    0.03482623331955
H         8.89840643256333    2.11326023090692    1.60527024236138
