30
 energy: -45.978427003199 gnorm: 0.114163056927 xtb: 6.4.1 (79825abcba525fcdf90b791dcacef51065a7a4e7)
C         1.07137893522790   -0.07959970779516    0.20939351935606
C         2.55745194832829   -0.13019854390830    0.12691647702721
C         3.36478031924394   -0.71775834813094   -0.83290677199158
N         3.03979139599258   -1.33692394446876   -1.98342363350648
C         4.70311832066287   -0.40648478552886   -0.53280644569767
C         4.86312486129340    0.35017163825544    0.59640090494427
S         3.41236305494990    0.78209526771411    1.32746740200072
N         6.15983654363377    0.64379523985881    0.92680915871620
C         6.64572052928217    0.19897113738468    2.26670328397771
C         6.86511622051541   -1.32190426724364    2.13058097509156
C         7.76654340342410   -1.17027979148880    0.90797669537093
C         6.96340585073634   -0.24817902695383   -0.02466719584280
C         5.98334400153820   -1.00176052915465   -0.97860432673768
C         8.81193840941026   -0.22885973087999    1.45982987963253
O         9.96963895606969   -0.03112733159922    1.12180914650136
C         8.08939531612497    0.70781411011872    2.40012185613450
H         0.83687459404342   -0.59722201172547    1.14433695785853
H         0.54795293277242   -0.48806632117044   -0.66078161938198
H         0.65889157580997    0.93179397436777    0.29226915306146
H         2.25816788559931   -1.98114887888029   -1.91592391054541
H         3.86048073616319   -1.54164032770166   -2.54536953104440
H         5.94748627804005    0.58861862373200    3.01158541837746
H         6.02069596350756   -1.97406614160168    1.88533577764410
H         7.34791915318611   -1.62409648903843    3.06672187891668
H         8.04652232311817   -2.13541266467870    0.49043584757335
H         7.68057205710828    0.40154742067888   -0.54198743628610
H         6.04350374909169   -2.07591783436720   -0.77459422532145
H         6.13699445296399   -0.93897376120080   -2.06138359978090
H         8.27021310508609    1.74620060466704    2.11660416075793
H         8.45021210994859    0.64117023624979    3.42990368681668
