30
 energy: -45.977933522198 gnorm: 0.123047287111 xtb: 6.4.1 (79825abcba525fcdf90b791dcacef51065a7a4e7)
C         1.10818128185194    0.18700781935951   -0.45642931936721
C         2.54806176514851   -0.06704618701122   -0.17362820762305
C         3.19645381137729   -1.29049134647219   -0.20581515264717
N         2.68589408545863   -2.50671373623650   -0.47563872997515
C         4.54914869471092   -1.11659280096875    0.13780660681764
C         4.90747309559620    0.20384543865660    0.17367824095344
S         3.60551144386911    1.26695253377757    0.15305684514069
N         6.23813306256051    0.42767789982583    0.41050883273202
C         6.89763458437039    1.19108817161851    1.51120430331817
C         6.95960288099969    0.09961003002245    2.59957976688630
C         7.69942625423409   -0.92800779424421    1.74694551945914
C         6.87901238088556   -0.96322738855765    0.44663592477746
C         5.72036691728640   -2.00291670591204    0.32420560918591
C         8.90075173389867   -0.13568821725441    1.28573930766318
O        10.06821637464237   -0.46250799775201    1.13133134308853
C         8.36540075988755    1.25961290035174    1.06188771425579
H         0.45556620422112   -0.54479823196985    0.02895489806027
H         0.86823661526593    0.15623280327878   -1.52390483821758
H         0.69140263200022    1.09796222553158   -0.01327133075503
H         1.69841443958599   -2.70062541715366   -0.34222394833072
H         3.13544258428788   -3.27238134407822    0.01719212050812
H         6.33060174616426    2.11827972358584    1.62520087745917
H         5.97398348042168   -0.32325916910417    2.81922021378266
H         7.37123589101479    0.30919492774991    3.59326535165195
H         7.85495995139622   -1.86732507942207    2.27392021313824
H         7.48150160096777   -1.06474358843253   -0.46484268663886
H         5.69043800510733   -2.49237580355627    1.30328031950249
H         5.94664567378198   -2.78459420378970   -0.40910184124088
H         8.47131026772397    1.69414336057276    0.06625207545330
H         9.02048980897237    1.86173316684881    1.69701786406177
