30
 energy: -45.978332212121 gnorm: 0.114143783188 xtb: 6.4.1 (79825abcba525fcdf90b791dcacef51065a7a4e7)
C         1.11851283058057    0.28016464279362   -0.30530624669492
C         2.55128404990678   -0.06336216028828   -0.08866908359835
C         3.25616177796718   -1.24535235383136   -0.24459484656803
N         2.69399896149041   -2.45499862427737   -0.42735626920154
C         4.64140326580267   -1.04285932429776   -0.10967774048309
C         4.94170980409215    0.24893243608688    0.22844987550361
S         3.60262982670674    1.26362334204493    0.28316023273625
N         6.27022471275548    0.54677662608176    0.38070813893500
C         6.76692619059505    0.97050796179487    1.72346924438939
C         6.76386026831459   -0.40328621423363    2.42518564520833
C         7.72613086814336   -1.06992066824576    1.44541221822994
C         6.97533010744222   -0.79036811439284    0.13267730133267
C         5.87497458379441   -1.86036798374419   -0.15493416936226
C         8.87211979629878   -0.08517631514894    1.41987166439334
O        10.04357180533323   -0.38448600516849    1.24171282405746
C         8.26058483432438    1.28993311686860    1.55652614122291
H         0.94658440414419    1.04158142084353    0.46132891465643
H         0.45800346068737   -0.57207457819740   -0.11705056190671
H         0.94062887349780    0.58610265004862   -1.34197909855797
H         1.71647215881678   -2.72820445396069   -0.40954562534294
H         3.27172830868605   -3.17896034134876   -0.01102561533380
H         6.26122511960318    1.85853108549106    2.11062164843069
H         5.75117105274957   -0.81500876233572    2.36644058657897
H         7.04899352506699   -0.37584531818257    3.48288344016798
H         7.99821199029268   -2.06216999842580    1.79984577645907
H         7.69638539134989   -0.60835791420263   -0.67419543934684
H         5.86415489494742   -2.53971879664771    0.70379665760110
H         6.01568414163011   -2.50417459573547   -1.02996300278836
H         8.37241176476136    1.90522361034430    0.66196691264117
H         8.57699325448561    1.92260166355827    2.39001099656519
