30
 energy: -45.970608573506 gnorm: 0.126910321517 xtb: 6.4.1 (79825abcba525fcdf90b791dcacef51065a7a4e7)
C         1.13127314415888    0.21932939968254   -0.42891725194728
C         2.54187471638923   -0.11828400774904   -0.09128417110605
C         3.13758447669748   -1.36684638721207   -0.02429045513053
N         2.56373317928729   -2.55257455223063   -0.30252829862752
C         4.50254707256128   -1.17818010495946    0.25745801704920
C         4.89474137803805    0.13248187360272    0.29732125148172
S         3.60871929468330    1.21216856164815    0.21889985472788
N         6.24572402721085    0.35246684403022    0.23989203757417
C         6.89622606064927    1.16431656551452    1.31087996112014
C         6.92081983621949    0.11822660508676    2.44437750757467
C         7.72151964411775   -0.91703652060536    1.65860893280842
C         6.93101038519573   -1.01369720295526    0.34298124611475
C         5.72916057281886   -2.00731909891688    0.26128103414961
C         8.93472403171366   -0.04366455449777    1.43720226313756
O        10.11160433951733   -0.36718979689067    1.37466559842129
C         8.41234584148627    1.34184157338998    1.13542551468001
H         0.33955355578216    0.14470324273043    0.32251831451594
H         0.85617930334194   -0.45844251206973   -1.24314887349979
H         1.08233195986568    1.27564753180495   -0.71479857908109
H         1.63108231490655   -2.39264761345598   -0.67009192951251
H         3.02232454617882   -3.30449230630798   -0.80803462139902
H         6.32153592158690    2.08073758375104    1.46615194646910
H         5.87988085947506   -0.17453543773748    2.61538136645686
H         7.32920806881852    0.31206808633133    3.44258747322283
H         8.00177990213120   -1.87583717822498    2.09030964743928
H         7.50348864864337   -1.10898691559618   -0.58829774938345
H         5.82287103685989   -2.67009540290845    1.12788310955002
H         5.81833523209684   -2.59589454826186   -0.65827777944957
H         8.94528887026741    1.80355133701772    0.30228705459583
H         8.57129641767047    1.95188433695731    2.02854550845988
