30
 energy: -45.978015299945 gnorm: 0.114963124121 xtb: 6.4.1 (79825abcba525fcdf90b791dcacef51065a7a4e7)
C         1.10156039299604   -0.22179280520445    0.28791824878952
C         2.56417691489285    0.00588791548343    0.12454717871478
C         3.38186255482950   -0.75261556163906   -0.69662817198688
N         3.01784813288793   -1.51579644626846   -1.74435013609357
C         4.75793856738856   -0.53392272243934   -0.50508629004898
C         4.93766114534491    0.41832230952427    0.46143812722978
S         3.52948479111650    0.96025638653972    1.20243263218182
N         6.23448544945143    0.69901687968304    0.80247021353708
C         6.58577436426560    0.34172058488451    2.20895641713200
C         6.67030006079089   -1.18943595869755    2.04120425178530
C         7.74450094448762   -1.15510790612221    0.95712112922777
C         7.07782777238915   -0.23080430678891   -0.07551341865010
C         6.07142769138846   -1.08276298150236   -0.91201066939211
C         8.77976184264270   -0.19374400668868    1.49347801361784
O         9.92368841179840   -0.15972775353403    1.06464054982499
C         8.05618211926159    0.70110546918654    2.47289222869627
H         0.53592692746093    0.42976515154645   -0.38481898466286
H         0.74313793486135   -0.07155948830046    1.31114247580885
H         0.76702298210247   -1.19714550084577   -0.08181572734342
H         2.05715568273727   -1.81752307800952   -1.87299051721938
H         3.62482665069720   -2.22739582591855   -2.13985790064310
H         5.86071623297706    0.73465144170886    2.92596525409263
H         5.75339345423439   -1.60018063059683    1.60637442889813
H         6.85509904867424   -1.75024864396715    2.96430612479124
H         8.07706589628610   -2.06337942189717    0.45846952581458
H         7.69745891055145    0.40693664259660   -0.71850314589694
H         6.12474063842758   -2.12547303413430   -0.58190961445245
H         6.36476765448722   -0.97955896061205   -1.96237355393481
H         8.16659617195580    1.78195602229110    2.36851461517665
H         8.40785916848141    0.48596552102521    3.48537375356980
