30
 energy: -45.977857548880 gnorm: 0.113770346038 xtb: 6.4.1 (79825abcba525fcdf90b791dcacef51065a7a4e7)
C         1.07123550625946    0.03310746535591    0.09450092641381
C         2.54864324196192   -0.15395024679325    0.08732473457529
C         3.34268275457805   -1.05276490833761   -0.60542322707795
N         2.90957838628988   -1.89212446779061   -1.56488609943636
C         4.71425751560098   -0.82159933488227   -0.39698813013795
C         4.91272170093951    0.31253613032380    0.34300442247509
S         3.50279106896746    1.09982663531346    0.80990412043727
N         6.22576112907079    0.60717519524955    0.59983295108109
C         6.65522484343901    0.67733980735449    2.02808567311251
C         6.87455479232647   -0.77991878405242    2.48417504890296
C         7.69966923021548   -1.18493681673330    1.26537698101912
C         6.98172256730751   -0.60059394249627    0.03728074308289
C         5.96888074506277   -1.56179227157776   -0.66175542916145
C         8.77941392640741   -0.14678199197211    1.46550277517004
O         9.98394059535032   -0.23041397183730    1.27643171106463
C         8.12530115556315    1.12004222020548    1.96637032555559
H         0.72036147642210    0.17552214781061    1.12097540078661
H         0.41512409838637   -0.77114338200183   -0.25295111942854
H         0.86884992285024    0.95332771173773   -0.46421737666373
H         1.93138096225910   -2.03820677269363   -1.33617878742716
H         3.39808885184814   -2.78237297470476   -1.57105855377453
H         5.99715866679759    1.27477408443426    2.66387401751249
H         5.92817876233950   -1.30373219089321    2.65298799847903
H         7.55183104339264   -0.73012434004435    3.34417272047228
H         8.09702987203117   -2.19089328567371    1.14551823213890
H         7.71210163767060   -0.13993884194350   -0.63979779429079
H         6.00755534568277   -2.51075594885786   -0.11675502128104
H         6.10039668760799   -1.65772224766967   -1.74502020992825
H         8.26040904430146    1.96307893367690    1.28640060172714
H         8.59410453297798    1.36749008566621    2.92244235723004
