30
 energy: -45.979801030329 gnorm: 0.125289562381 xtb: 6.4.1 (79825abcba525fcdf90b791dcacef51065a7a4e7)
C         1.06476656686041    0.17844669789222    0.02334352197580
C         2.52048328900003   -0.11085931691145   -0.09899448399002
C         3.25475036893135   -1.28430542263362   -0.14528062662482
N         2.80795510712006   -2.54763372976301   -0.27585041704546
C         4.64413338760283   -1.06689994801737   -0.12407355629919
C         4.98433906555496    0.24552789898762    0.06309886522026
S         3.62010344545719    1.22550945933376   -0.00188866503951
N         6.34366165117419    0.40116398316271    0.13284942691585
C         6.85456838276847    1.16399325296490    1.31027620272516
C         6.71696590805219    0.12957055101381    2.44639282584109
C         7.55310656936419   -0.95145126687349    1.76625842956930
C         6.96558718079004   -0.98256309196024    0.34535118342860
C         5.78671572167118   -1.97906317499142    0.10944436185774
C         8.79819697289641   -0.11333822276758    1.59024479721895
O         9.94746000828017   -0.52480456785448    1.53094390454361
C         8.38237776149196    1.28672972952873    1.20232789931172
H         0.81842270464091    0.01703751617003    1.07705418011978
H         0.46135536028104   -0.57270287825382   -0.49597695804240
H         0.73962546157030    1.16384687112436   -0.32765667964991
H         1.81910554671220   -2.59203063609807   -0.50106752678194
H         3.37646213721691   -3.07930012756303   -0.92804178451026
H         6.44906386209687    2.17105910095858    1.43513648518487
H         5.67119170696228   -0.13380294183044    2.63479826955403
H         7.26399887376704    0.44282679607171    3.34272092538738
H         7.63907649662143   -1.93737294375954    2.21878206125929
H         7.78930792164080   -1.11840183058521   -0.36677523431049
H         5.55205194979960   -2.47420041796043    1.05750831175824
H         6.06586440430222   -2.65416926148812   -0.70680889578274
H         8.74541835872778    1.46573456690597    0.18867970531271
H         8.78549480303480    2.07045185977634    1.84913316909400
