30
 energy: -45.977218378701 gnorm: 0.129847808335 xtb: 6.4.1 (79825abcba525fcdf90b791dcacef51065a7a4e7)
C         1.07236208834881    0.01399828190844    0.02491730472080
C         2.56155083612826    0.02132829098575    0.01868600206714
C         3.33979410960778   -0.75697628143140   -0.82205513519881
N         2.86940273591398   -1.47560937519640   -1.85886336275251
C         4.67033909155147   -0.64532410967071   -0.38014578149220
C         4.87871285766101    0.34296521240066    0.54349097617806
S         3.45000470515672    0.98865879843017    1.14979029615419
N         6.17192320877794    0.48376298271085    0.97317527368168
C         6.70948387429237    0.16599734081394    2.32939115985389
C         7.06218531237262   -1.33480210631913    2.27527586201269
C         7.88305026456690   -1.18346248973664    0.99715254126903
C         6.92779583676600   -0.46031919459194    0.03295488122537
C         5.92259071528017   -1.30932959521696   -0.80796506468189
C         8.79479183172269   -0.03560564503474    1.36432601900625
O         9.91399217405277    0.23925157384711    0.95754502712205
C         8.10347365849655    0.80713506640475    2.41095999628565
H         0.70238736866294    0.70020190107168    0.79256805049178
H         0.55521525613129   -0.92044270749920    0.26450802815556
H         0.71068213965601    0.42175779916934   -0.92526749674883
H         1.89202882962669   -1.73294598106195   -1.76380862897223
H         3.50951665703300   -2.19442667970278   -2.18255894752781
H         5.88368711505182    0.43340574870584    2.99328729861657
H         6.16387066326525   -1.94877453459211    2.15455081956648
H         7.69015996007886   -1.63454676841117    3.12178609979486
H         8.32756594735854   -2.12403601515604    0.67787637832389
H         7.45582861128140    0.21189694728627   -0.65508501544221
H         6.15819581498599   -2.32987174925331   -0.48853246710208
H         6.19550039015553   -1.16540295968527   -1.85904404585979
H         8.13301160426318    1.84880588434778    2.08634748149591
H         8.48091137824652    0.67570672827051    3.42848058211395
