30
 energy: -45.977032966700 gnorm: 0.129049731872 xtb: 6.4.1 (79825abcba525fcdf90b791dcacef51065a7a4e7)
C         1.12032360336450    0.18133081858180   -0.08186359092475
C         2.59539315803509   -0.01944689748799   -0.04144322166221
C         3.28739421397197   -1.17832110337031   -0.35194503903528
N         2.70211864358507   -2.35824314648810   -0.63106749933442
C         4.67400887518046   -0.99274503684252   -0.20716471646429
C         4.99289858282081    0.31854230112357    0.02103505768337
S         3.66009760407789    1.31568884265801    0.25569732932818
N         6.31723226512255    0.45897533311668    0.34238296059266
C         6.68878458338354    0.91006079499296    1.71633302334589
C         6.75588610820353   -0.45567735707996    2.43046356553911
C         7.78977148958425   -1.05247177268973    1.47902275557977
C         7.00506239406038   -0.89830790047875    0.16540579702690
C         5.83047946430450   -1.90407200933825   -0.05184027837809
C         8.86105298665316    0.01298442708298    1.45032732736392
O        10.02817231979352   -0.28198161391465    1.23948575023329
C         8.16098837687984    1.34061879427774    1.62603144536931
H         0.80964365538546    1.03405901725038   -0.69290938358822
H         0.96891493945203    0.34847968431796    0.98919251652684
H         0.56124521455096   -0.68920297744814   -0.44177140289250
H         1.69158099960367   -2.39415710658474   -0.54139507030672
H         3.11005837501909   -3.19313497760932   -0.22147771810069
H         5.94799941657951    1.67697348852460    1.95568189402616
H         5.80140494932094   -0.98993870276768    2.38533687324187
H         7.16242447260236   -0.42797924141139    3.44768427655102
H         8.04299262851954   -2.09540037171503    1.65899222397893
H         7.62433722933086   -0.90811236549717   -0.74040577640155
H         5.74087639526901   -2.67646543637136    0.71915448153454
H         6.05520962424193   -2.47267058800412   -0.96077020088250
H         8.35967813418215    2.11848654715429    0.88659381563728
H         8.41099584755658    1.63882400942038    2.64762368125968
