30
 energy: -45.977513600108 gnorm: 0.114209904073 xtb: 6.4.1 (79825abcba525fcdf90b791dcacef51065a7a4e7)
C         1.06320912818096    0.22087519663941   -0.07964986634212
C         2.51687107879792   -0.08520761578706    0.02502075254062
C         3.28743084376725   -1.10064685377254   -0.51663141981853
N         2.77607918847135   -2.16152440235244   -1.16911221293925
C         4.65661155828883   -0.81396573467122   -0.37082970800258
C         4.92995503356168    0.26809093660893    0.42143095272038
S         3.53126675921426    1.17030604220233    0.65681373147013
N         6.24323044357033    0.56508835781671    0.67430607750849
C         6.66763097676109    0.54761605724492    2.10568544418989
C         6.97103116257711   -0.93420871349881    2.40878513244196
C         7.86038638420685   -1.13076568816605    1.18374030997913
C         7.01910937395770   -0.58187652089593    0.01922408056386
C         5.92463398986227   -1.56731965520285   -0.49984028776582
C         8.82890193376861   -0.00079253687482    1.44604298044212
O        10.02918255834953   -0.05663491302701    1.22280605925772
C         8.06279294711495    1.18142464519585    1.99286558384530
H         0.42059754797227   -0.56163710457999   -0.49410038327016
H         0.94040789564269    1.20111559111043   -0.55089624223827
H         0.63272723421814    0.46584301646392    0.89739029356503
H         1.76312927274644   -2.22587229771076   -1.15153085709260
H         3.34838967248785   -2.94886830648604   -1.45854834968645
H         5.85474381296043    0.97624745255444    2.69703577085332
H         6.01199191749287   -1.46183936385608    2.42764008940580
H         7.53454686819160   -1.18315013567730    3.31501734344560
H         8.35757959236236   -2.08150953733550    1.00181982308189
H         7.62318491796966   -0.35108088106302   -0.86729617519167
H         5.98132981929553   -2.49826219791360    0.07390599426444
H         6.20289171786540   -1.83080889816601   -1.52605061923983
H         8.08215658448905    2.07890771831356    1.37200082402517
H         8.48288927082424    1.37283161933536    2.98380616254381
