30
 energy: -45.979929009386 gnorm: 0.103508918780 xtb: 6.4.1 (79825abcba525fcdf90b791dcacef51065a7a4e7)
C         1.10083854998788    0.19431216008166   -0.14655486466058
C         2.56398379213049   -0.08022846270433   -0.10644077836993
C         3.27843536224495   -1.26052244186076   -0.22781356968708
N         2.74433167971327   -2.42488964812366   -0.64212642807140
C         4.64634106686349   -1.06581416881206    0.03490818193015
C         4.91839022243441    0.25359903623221    0.27652424011473
S         3.56259403605664    1.23795967019810    0.41282132976550
N         6.24214759813800    0.60643681954549    0.27233886591565
C         6.76827460809660    1.04092247002470    1.60037522651079
C         6.73260722746341   -0.27050016476195    2.41193191306281
C         7.65372642834904   -1.04565661746769    1.47331907357438
C         6.98268486188864   -0.72663429378916    0.12682275060591
C         5.90530366059997   -1.80816409741844   -0.20172768294080
C         8.86943145329459   -0.14900487603928    1.51504833552660
O        10.02244746441725   -0.55260089226734    1.55097891651337
C         8.28075047868190    1.23923596826648    1.41596516509849
H         0.92892723756516    1.11765993244414   -0.70773198570074
H         0.69170800750191    0.31242955784435    0.86175312491431
H         0.62274408140536   -0.62985103490544   -0.68702879723268
H         1.73998669765855   -2.47637289892325   -0.50371428792394
H         3.32843362532866   -3.25558038745790   -0.64123220643987
H         6.18148125303710    1.88874684192896    1.96241530290645
H         5.73222835628693   -0.69239313937913    2.55248197008105
H         7.28903226187185   -0.15649421662310    3.34904045870533
H         7.92156944057437   -2.08873030867965    1.62973969937410
H         7.68182637263186   -0.56963583333518   -0.70422760010807
H         6.05789258535838   -2.74053081662207    0.35186256381778
H         6.13361495036050   -2.00020051632942   -1.25574739809705
H         8.45469448781692    1.59798795637804    0.39991183985141
H         8.62682752027854    1.90796032099456    2.20850488257642
