30
 energy: -45.978104526482 gnorm: 0.116888572911 xtb: 6.4.1 (79825abcba525fcdf90b791dcacef51065a7a4e7)
C         1.15624005197167    0.20639985488835   -0.54111253207868
C         2.57581350399541   -0.04680284280802   -0.16898982228682
C         3.18298485342088   -1.27542297767305    0.03126452733455
N         2.60521440137562   -2.48637605014912   -0.08030092663592
C         4.54048422784280   -1.04406576837528    0.31721790571496
C         4.91038620988355    0.27188235917897    0.24871010392488
S         3.64204840354281    1.31812250806299   -0.10118533288706
N         6.27145393037478    0.42565255373973    0.27507294891599
C         6.78682999672661    0.97260642979745    1.56522679870795
C         6.97048330347566   -0.23121907207168    2.51222277038614
C         7.80192859403811   -1.03495133250723    1.51571117788689
C         6.88114622030833   -0.97963114492741    0.28517313554664
C         5.68651518319611   -1.97398936237464    0.43520905744539
C         8.90224968629124   -0.01354461882197    1.34341432186137
O        10.08463835886275   -0.22444385335940    1.11734969862075
C         8.26528868041319    1.35575344941358    1.39706956227025
H         0.47059065951144   -0.04142336099924    0.27467723136063
H         0.94784665170636   -0.42082265317635   -1.41357378419985
H         1.02522884182324    1.25773370610302   -0.81943709936242
H         1.82923103812034   -2.71489044072932   -0.69361022154204
H         3.12272914606604   -3.34112660762900    0.10081496646623
H         6.17456136902817    1.79845487757434    1.93577651845812
H         5.97340822384014   -0.59790556563972    2.77658651097142
H         7.54599745225490   -0.02044492423242    3.42059291829412
H         8.16103690250121   -2.02830937122471    1.77741912094454
H         7.44012413389782   -1.00491687165776   -0.65875291018777
H         5.70711229282137   -2.54374791236841    1.37009096836729
H         5.51604687291076   -2.77002015926788   -0.29775554755452
H         8.48504218331379    1.83464405219665    0.44119506419990
H         8.61221734666323    2.04483960781012    2.17158976866829
