30
 energy: -45.976034266150 gnorm: 0.130945631329 xtb: 6.4.1 (79825abcba525fcdf90b791dcacef51065a7a4e7)
C         1.11306886528346   -0.07742123337789    0.25787147361796
C         2.58042561966492    0.01780164115260    0.02213337579971
C         3.31602550304831   -0.73493826493585   -0.87816752962950
N         2.83077627598035   -1.59542174288177   -1.79292118500335
C         4.67112177462221   -0.53648552662227   -0.55811964263613
C         4.86927874847447    0.33000164676033    0.48263684131064
S         3.47263953425321    0.98627250900937    1.14929530918826
N         6.15987568175234    0.52225697800649    0.90006115448275
C         6.64266547601704    0.16012130206551    2.26572574193488
C         6.98072115292459   -1.34103417950236    2.15628933089573
C         7.84097517086411   -1.15188488167271    0.90949033273746
C         7.00432695333816   -0.31086398822910   -0.06919654127738
C         5.99130849978086   -1.01809764202656   -1.02419210855097
C         8.77706909755661   -0.11812670630151    1.49150114058885
O         9.99620347633288   -0.16088215232421    1.41727169295772
C         8.00357329490549    0.87026443512163    2.33314393936310
H         0.68792437349522    0.90922307393442    0.05091848732019
H         0.81401880376227   -0.30950488546090    1.28487233224242
H         0.54375566765230   -0.79461772275748   -0.34332986556194
H         1.95314596537045   -2.03985824729265   -1.54240468404429
H         3.52288069479280   -2.22892570384215   -2.18136318557565
H         5.87086005496979    0.44349629774923    2.98560116937128
H         6.07030926990347   -1.92257566521471    1.97890389998268
H         7.57197870771770   -1.64457073309851    3.02752906112495
H         8.29690475564490   -2.06092128837803    0.52220356088200
H         7.55998616318338    0.50024036961428   -0.55647943518514
H         6.24876378272532   -2.06639317218937   -0.84021793619613
H         6.30408283023319   -0.75424672597089   -2.04032030258814
H         8.02126464389309    1.89669457254684    1.96239866673327
H         8.46692650039300    0.82520222287728    3.32226172125269
