30
 energy: -45.975593796885 gnorm: 0.108388763748 xtb: 6.4.1 (79825abcba525fcdf90b791dcacef51065a7a4e7)
C         1.07960179953816    0.00180786750589    0.19213909336179
C         2.54082542617822    0.07671757288414   -0.08533116292391
C         3.29654563719415   -0.97202639508970   -0.58261311170483
N         2.82147399005335   -1.87673182026423   -1.45924753471078
C         4.67252888352819   -0.79981201709350   -0.34785284999700
C         4.88996374772680    0.32148908198583    0.40623349350325
S         3.50146184080180    1.12929553399880    0.90144785561831
N         6.19642399749536    0.56081118866988    0.74198962515461
C         6.64605144826212    0.47414278563344    2.16311303721322
C         6.89733532376045   -1.04089029742047    2.30891057393936
C         7.83938656820573   -1.12437231853930    1.11062330402115
C         6.98724845748974   -0.51177570183996   -0.01352544616490
C         5.95574002092890   -1.39800402456848   -0.78098363942564
C         8.86722950992473   -0.07583629441434    1.46808027267408
O        10.07895659076834   -0.15215514679888    1.32836774444651
C         8.08799403935765    1.00459575563493    2.18154651395874
H         0.78892823265065   -0.25418996857721    1.21537824460866
H         0.67813442584084   -0.77261294549756   -0.46901207818616
H         0.59758396619962    0.94143579279135   -0.09887557513663
H         1.81399691413256   -1.94747058838703   -1.56173294991282
H         3.26668889000839   -2.09268819016954   -2.34602232683738
H         6.00135086967793    0.86446097364762    2.95445273087115
H         6.09339622883750   -1.74684841815695    2.07693869708569
H         7.23714025527894   -1.27996978944270    3.32288898072675
H         8.28634326639771   -2.05666434954251    0.77110703120184
H         7.67615126866131   -0.10048491487464   -0.76208731168775
H         6.03025405888966   -2.44669445193154   -0.47479858827460
H         6.18006402596029   -1.30942636089153   -1.84953141039769
H         8.10672533952309    1.89424328003886    1.54948616085653
H         8.60900097450905    1.12905676008092    3.13451137040554
