30
 energy: -45.971941552897 gnorm: 0.122395138185 xtb: 6.4.1 (79825abcba525fcdf90b791dcacef51065a7a4e7)
C         1.07045162859663   -0.12240523844281    0.05132430922884
C         2.55504286795497   -0.18186818494281    0.15246132356076
C         3.43348179779833   -0.72496310330287   -0.77039252056884
N         3.00821651082225   -1.54671662087626   -1.74842291777317
C         4.75491982344317   -0.34817383937842   -0.47050682225525
C         4.84109758630518    0.42026965701812    0.65878864822225
S         3.34807204174262    0.83631375029450    1.30956364587781
N         6.12505320172836    0.70862769928887    1.03977845855582
C         6.65601295838094    0.16045924586477    2.32307931151954
C         6.78362862966051   -1.33602950789568    1.97099779084235
C         7.72698634852360   -1.06459500568639    0.80192906031740
C         6.94684436297567   -0.02734889057434   -0.02306994048243
C         6.04450014174050   -0.67929452676269   -1.11812434210674
C         8.83540372750727   -0.25808293281598    1.43802148724126
O        10.04159578026104   -0.32405170957934    1.25261510713739
C         8.12931176120345    0.56252353781232    2.49235282164152
H         0.68935408588436    0.88552999189456   -0.13808425925820
H         0.63759137292972   -0.53191364668784    0.96945250302129
H         0.60212959613829   -0.82960446318273   -0.64183880309233
H         2.39153741249658   -2.28416340508801   -1.42223828706644
H         3.81325442759408   -1.72311196886554   -2.34173700758268
H         6.01881703717292    0.41477683669031    3.17367295631581
H         5.79670322815381   -1.68990403832078    1.65594707256453
H         7.18362731279723   -2.02479398423208    2.72358210673149
H         7.98936939986947   -1.95978375677282    0.24157002326688
H         7.67305487327046    0.60809831502321   -0.54548471466339
H         6.36472478069759   -1.72318813370839   -1.20055949425654
H         6.23517802905261   -0.27069914893369   -2.11644961820852
H         8.33328070779096    1.58357801481871    2.16498713611733
H         8.56044402032549    0.39571631501497    3.48299963554068
