28
 energy: -47.953971551078 gnorm: 0.119706294310 xtb: 6.4.1 (79825abcba525fcdf90b791dcacef51065a7a4e7)
C         1.34147870928573    0.01182129847468   -0.89828368016732
C         2.82151730475122    0.05136130152522   -0.58643373789487
C         3.83337410994147   -0.90562678945709   -0.84029257489216
C         3.43495850522072   -2.10598678528633   -1.68328517656059
O         3.09892239742688   -3.23091418656923   -0.87166254645982
C         5.13567738589705   -0.87438957731106   -0.27867742817063
C         5.49645618208815    0.15099874359352    0.60618755467556
O         6.68673892458892    0.15640648587200    1.29293139977237
C         7.65297398549726   -0.83329834556890    0.95622992212167
C         8.03617339409182   -0.75414101348038   -0.50431599033312
O         8.37964893544001   -1.66545744951112   -1.25434474712027
C         4.53729672665292    1.13027921788278    0.87561075428636
C         4.90129103585809    2.12106233797126    1.85864491384087
C         4.93388647873718    3.07145270447752    2.58091038758424
C         3.22708019733446    1.00436954109406    0.38078007783107
O         2.22544810059736    1.85798092630607    0.79035766815011
H         1.16815103043335   -0.63122436548669   -1.76082817110320
H         0.95882110008639    1.01922747024322   -1.11352220785655
H         0.81959785301438   -0.27024792031156    0.02366759799521
H         4.18016677314983   -2.31774952462045   -2.44047051139855
H         2.52897405470332   -1.82352928056117   -2.23605372104417
H         3.92549322815442   -3.63829960465660   -0.56116576509018
H         5.82560004001428   -1.69478430015446   -0.43454456916873
H         7.20095831917956   -1.81781246566279    1.09528591872045
H         8.50219727589874   -0.63794756676855    1.62017740446457
H         8.03322195287543    0.30288201877325   -0.82002759094611
H         5.11150918305373    3.86536232258553    3.27341307085890
H         2.68839610223965    2.28097500852218    1.53290115063529
