28
 energy: -47.958721170509 gnorm: 0.119127230966 xtb: 6.4.1 (79825abcba525fcdf90b791dcacef51065a7a4e7)
C         1.02609790146177    0.03990483921474   -0.08795164896128
C         2.52753671171785   -0.14089860279735   -0.03978878983304
C         3.28663662283277   -1.20543701528715   -0.58260551890143
C         2.65441897099729   -2.52182373543913   -1.00410578966052
O         1.91619877743130   -3.11276650016925    0.06497363238063
C         4.70133262212997   -1.14686523359406   -0.49550938005620
C         5.39267589137859   -0.01932473121684   -0.03154226629268
O         6.74197124177520    0.16442444476924    0.15300492355780
C         7.58259216552378   -0.90262832935580   -0.27272806466559
C         8.92654032996400   -0.47294129217976    0.27084752278261
O         9.88716201336381   -1.23989677587602    0.27207212068271
C         4.65539645205453    1.07342723045206    0.43092735921789
C         5.35829581454174    2.26473375508349    0.83985333353710
C         5.92176806765763    3.25695799058888    1.19193543659407
C         3.25173464870957    0.99379401066231    0.40317684006139
O         2.45442396120557    2.06646435311877    0.73984738808918
H         0.84720176656981    0.96959201976433   -0.62759146562980
H         0.64914738133765    0.25420708128544    0.92180303476056
H         0.57507982632017   -0.83241196584646   -0.57535591445613
H         3.41140093200435   -3.20456910369405   -1.37063754093816
H         2.02136465566960   -2.37232969217158   -1.88899950779668
H         2.55611290251201   -3.23627055627852    0.78667102698967
H         5.25112446524339   -2.03266932966737   -0.78947429191926
H         7.67277145972575   -0.86003715763288   -1.36037528417450
H         7.18309325318456   -1.84910387407347    0.10773618675237
H         8.98641105458527    0.55772032503530    0.65960495987121
H         6.47763605523275    4.00851465597891    1.70921256757906
H         3.07743686348334    2.74277345081343    1.05461173517782
