28
 energy: -47.951895359527 gnorm: 0.118882241823 xtb: 6.4.1 (79825abcba525fcdf90b791dcacef51065a7a4e7)
C         1.37038017199181    0.03692994500357   -0.94275323020204
C         2.77930620093446    0.00323196859099   -0.39218995586112
C         3.57116675540495   -1.17012228315890   -0.37426355085940
C         3.03127652773360   -2.45922101289069   -0.97174044160089
O         4.08437461630291   -3.37652589149946   -1.26610312648197
C         4.90547920480989   -1.12242344411799    0.10502369073662
C         5.35804933754997    0.03187479697353    0.75873955014317
O         6.56127008665990    0.26611468373126    1.37987630854224
C         7.53066442327698   -0.72768137129479    1.06501481368288
C         7.65356148212577   -0.83763265575394   -0.43801847423209
O         8.31811104927500   -1.77390294905610   -0.87709482597742
C         4.56852545078492    1.18256011855155    0.82309242799244
C         5.07148624051554    2.30372283816918    1.57842268064518
C         5.47267747937301    3.36214277744119    1.95890203381194
C         3.30926013543101    1.17790232095187    0.19730719897676
O         2.47577089484765    2.27559274652532    0.20397492147984
H         0.95915465989075   -0.97210850572215   -0.95912969041727
H         1.40576376275162    0.26744333334127   -2.01664020904924
H         0.71959651972368    0.79663622040040   -0.49415113809256
H         2.47929101653915   -2.23548013082487   -1.87659427714198
H         2.29955507408063   -2.92402191036860   -0.29743563951337
H         3.84941079106962   -3.84941448551022   -2.08265615390681
H         5.54403763527741   -1.97913473684675    0.28285570711145
H         7.19263184531746   -1.65000924454637    1.54247482075270
H         8.44134022033203   -0.26115565745490    1.45641197380639
H         7.21699119970317   -0.03439787335120   -1.05543283281799
H         5.94973636979495    4.23218464040718    2.35493768852930
H         2.88361269281110    3.01392472487497    0.68682750561899
