28
 energy: -47.950829222868 gnorm: 0.112482105366 xtb: 6.4.1 (79825abcba525fcdf90b791dcacef51065a7a4e7)
C         1.20229443251915    0.17403849322077   -0.87221172168340
C         2.56891832516454   -0.06472606550968   -0.26834198128315
C         3.21201223132054   -1.31946639538496   -0.14113495628487
C         2.52976018834191   -2.65825859631120   -0.37005243170906
O         2.53247991833547   -3.49477740327358    0.78638265027553
C         4.59183800505967   -1.31351426589008    0.18814692319191
C         5.28276433131537   -0.11363707466056    0.40605539635110
O         6.60124649328769    0.00532050715088    0.77466527522509
C         7.42184528245794   -1.05855679764446    0.30426497362876
C         8.81777308811618   -0.48549361380783    0.20790012415392
O         9.76704138962817   -1.03842867113656   -0.34361483073090
C         4.65926516047550    1.13556572337686    0.35802303647153
C         5.31967453200226    2.40750397989500    0.52090862438288
C         5.81524691256176    3.44268343771476    0.85073162995673
C         3.35708753522642    1.10904188847022   -0.17207876558427
O         2.72204151162201    2.31681007840317   -0.36620656912886
H         0.44787667388577   -0.58067284870833   -0.65130938699058
H         1.47904003858763    0.19777142924278   -1.93544748519748
H         0.84162786178462    1.16969056961673   -0.58846289307680
H         3.00055102765027   -3.24901953063855   -1.14649686028679
H         1.48771595141780   -2.55571615054634   -0.70137097632479
H         2.56291970901556   -2.95464044749283    1.59441480021490
H         5.10383822037629   -2.26121598705406    0.30239471168428
H         7.18686937903144   -1.47627166136621   -0.67717448090303
H         7.25956472046237   -1.85576253664052    1.03795183694952
H         8.94390668196964    0.50771086685692    0.67116613108398
H         6.29165664540342    4.39304093038408    0.95682907389156
H         3.13209120202963    3.05874911581308    0.10918945323867
