28
 energy: -47.944342227073 gnorm: 0.118530330249 xtb: 6.4.1 (79825abcba525fcdf90b791dcacef51065a7a4e7)
C         1.80690556969359   -0.11300661087951   -1.37449304409349
C         2.97116528774097    0.01740497370093   -0.41698577345730
C         3.56096789243604   -1.15106827773662    0.12239150596846
C         2.92504803845941   -2.53041740545376    0.06549207218318
O         3.06056985814709   -3.23506002539445   -1.16829308932604
C         4.84716065782796   -0.93526460875433    0.68052957985311
C         5.48821498246232    0.31028297444790    0.63331557314721
O         6.77633584021488    0.50829308457091    1.06915501611279
C         7.59034966136823   -0.65947151203065    1.05497470849557
C         7.35734213226244   -1.68357532552509   -0.03278487083273
O         7.66795772824474   -2.87259281978330   -0.06056219625498
C         4.68360085483899    1.44283387133345    0.48671902466835
C         5.22239673107788    2.72198782347703    0.87910069915621
C         5.82523150647811    3.74041576831850    1.03836927725284
C         3.41757468073053    1.32788911953716   -0.11439946100768
O         2.62108992834512    2.41582873412976   -0.40018343412176
H         0.79714564471512   -0.07735332206036   -0.96626891256371
H         1.78773436012056   -1.13682879093724   -1.77329409236611
H         1.92682492820190    0.59893443475958   -2.19952402857951
H         1.86549190984427   -2.43293304890036    0.26882937843495
H         3.34345436151757   -3.14120694411078    0.87667356515708
H         3.23979195001227   -2.53508259339326   -1.81906302164936
H         5.45335525286399   -1.81824320712068    0.84243155441776
H         7.52149100750654   -1.10640120530119    2.04917545321218
H         8.62421448572296   -0.33587734363103    0.89194488494753
H         7.06079463810034   -1.21863203664752   -0.98822588848848
H         6.33512488626874    4.64788763215460    1.27900557969504
H         3.01453943078516    3.13727853692327    0.11878027965373
