28
 energy: -47.951224553961 gnorm: 0.107969522441 xtb: 6.4.1 (79825abcba525fcdf90b791dcacef51065a7a4e7)
C         1.22203612572647   -0.22980286146076   -0.44850342001323
C         2.72140123474034   -0.14033472982673   -0.26621856648551
C         3.55083999232550   -1.27599169812439   -0.10361688988134
C         3.01698280147280   -2.64369669467979    0.28959446588614
O         2.57532344698585   -2.74840104437033    1.64277118285278
C         4.94428534813779   -1.01055905859705   -0.11900252053899
C         5.47258912706364    0.28728563949393   -0.08640124660974
O         6.80637313078625    0.47696617192675    0.18463545955995
C         7.76246703373255   -0.43098598417087   -0.35202184630385
C         7.95807465012282   -1.74340200554200    0.37296358693125
O         8.77339950583213   -2.60287163786895    0.04497950073147
C         4.64845574747911    1.41098723841052    0.01190878407426
C         5.30765907542948    2.68431069361787    0.16874479288621
C         5.82011339946819    3.75495109625724    0.29947888883465
C         3.27653307790392    1.15975668675057   -0.16722632979414
O         2.40065116077332    2.22223115795862   -0.22765743969757
H         0.82263793697696   -1.06302698211696    0.12920919130101
H         1.04393826443217   -0.40161866410349   -1.51919578883689
H         0.71530850982880    0.67022086354179   -0.08094220366383
H         3.86154534570730   -3.32204147569370    0.28117303878435
H         2.17134292243570   -3.02998762058464   -0.29505554783477
H         2.21395355186063   -1.94088983106655    2.04641447374559
H         5.54042171413276   -1.90925516971159   -0.22050164509895
H         8.66325782433748    0.18537204592387   -0.31200287813707
H         7.51328434367004   -0.59910774493556   -1.40549773270326
H         7.36132500698614   -1.80423316543931    1.29879815609417
H         6.29713422836469    4.71027551245777    0.26471319310507
H         3.03024802782148    2.95835428169972   -0.14799439193634
