28
 energy: -47.954936395865 gnorm: 0.115858115090 xtb: 6.4.1 (79825abcba525fcdf90b791dcacef51065a7a4e7)
C         1.52274127564464    0.01917442573544   -1.26818418629965
C         2.82665994606044    0.01059672752517   -0.50068789369045
C         3.54796844156790   -1.17997927833161   -0.24306892775745
C         2.84004319021047   -2.51708105084681   -0.38879579254070
O         2.31192340426815   -2.79685034717986   -1.68491764095881
C         4.88786391388759   -1.12230960898395    0.21924642630598
C         5.41890751226882    0.10274025124209    0.64564308004740
O         6.67695952315573    0.18643044428673    1.19219631609593
C         7.45994242235967   -0.96808787354876    1.47595494281443
C         8.27656209207494   -1.25955386505376    0.23721287052645
O         8.93573140541846   -2.27539128447918    0.02605799051662
C         4.72928035544849    1.29912929145201    0.43437643719283
C         5.11279335358491    2.56447352081898    1.01084928909212
C         5.38444795402754    3.67099873970837    1.36830897958217
C         3.43899119167900    1.23071607203641   -0.12046723820051
O         2.71215070045898    2.39346908749350   -0.25968425645602
H         0.62659257424448   -0.29264527961092   -0.73225585157678
H         1.52747353021126   -0.68881818804018   -2.10862795408954
H         1.32695276356005    1.05357961573296   -1.57410834556104
H         1.95050691618268   -2.38830471438092    0.21589448085725
H         3.43033183911935   -3.35419364555937    0.00736697733637
H         2.96649960899637   -3.26526636321617   -2.23054287469660
H         5.32273840791749   -2.08838605334374    0.44489174432065
H         6.88132398650564   -1.77252491645785    1.93530723875073
H         8.20921593613198   -0.79345588778017    2.25586599695580
H         8.44760333729683   -0.38791187965821   -0.41697774211674
H         5.79421288734160    4.58497649894395    1.73998036859372
H         3.19327972768341    3.12313057419262    0.16543294816197
