28
 energy: -47.949210098539 gnorm: 0.129350998279 xtb: 6.4.1 (79825abcba525fcdf90b791dcacef51065a7a4e7)
C         1.49974874846177   -0.04157557501924   -0.86785888254803
C         2.92117207157664   -0.08531042814288   -0.35116648262541
C         3.65944213282394   -1.27390141540759   -0.13591438654324
C         3.20371645479605   -2.64346707629483   -0.61219120823036
O         2.60391255164839   -2.69507263420011   -1.90628755243138
C         4.98271744093905   -1.09257233111028    0.34204310705143
C         5.49170386134860    0.15060180229407    0.74206743395202
O         6.65612437828671    0.44840601750027    1.40829327461481
C         7.47814392234423   -0.71362638808821    1.42970114777179
C         7.81939408356741   -1.35582050023460    0.10401751883837
O         8.17338588472195   -2.52881836895626    0.00511334434652
C         4.69746028623052    1.29589503474715    0.64695423449032
C         5.31382816224446    2.59816897249216    0.71530939923098
C         5.73316224732032    3.71136635787397    0.81981884231474
C         3.41147192109236    1.16802421703652    0.09264297389855
O         2.61402154880115    2.25988983525086   -0.17489285730752
H         0.87282455398610   -0.79120017649697   -0.38561183153576
H         1.56402039258616   -0.34914987831125   -1.92089680740612
H         1.13190817104987    0.98836693789138   -0.79151387898556
H         2.49764684133368   -3.09689263408845    0.07292148960304
H         4.02029274296193   -3.37786827712714   -0.61111374193732
H         1.68280516831256   -2.38343334024246   -1.90057749994417
H         5.53860237246702   -2.01829064307033    0.42790859077751
H         7.08258449667213   -1.41585382544883    2.16681182729591
H         8.37121428289450   -0.26206191442882    1.87544013352012
H         7.58559683134020   -0.67504164866802   -0.73196048147326
H         6.35720509539110    4.57812677474825    0.84626073246844
H         3.02989124069226    3.02594823539634    0.25501712242158
