28
 energy: -47.953636795423 gnorm: 0.119831135632 xtb: 6.4.1 (79825abcba525fcdf90b791dcacef51065a7a4e7)
C         1.29330600930166    0.14336241694375   -0.94768336963390
C         2.69038881197559    0.07916936152537   -0.37030401406806
C         3.54518858410546   -1.02962432032189   -0.58011015348566
C         3.22888845510724   -2.18346273907104   -1.51757842652546
O         4.40018805205538   -2.75040565427308   -2.10387715598468
C         4.81539462511719   -1.14618189491403    0.04067330277293
C         5.30556560279061   -0.16809092323182    0.91682342551376
O         6.54977386534838   -0.05343347562511    1.48885386397280
C         7.49267571348341   -1.06685363020273    1.15657472467279
C         7.87832445796337   -0.94727315076564   -0.30057234652408
O         8.12727848201461   -1.88041686169587   -1.06102020063394
C         4.51545496597284    0.97938312285235    1.01975277945506
C         4.95692653643268    2.12678238134744    1.77412470023858
C         5.13751092351021    3.15083410632307    2.36121844402385
C         3.25393805557010    1.11638153231080    0.41379526150492
O         2.49243411024136    2.24740981443393    0.61518993451009
H         0.73499474513501    0.66512187082117   -0.17077358315858
H         0.76537138905098   -0.81684476458151   -1.03080294540601
H         1.22659412012473    0.81752270145481   -1.80964291569320
H         2.55648472278481   -1.75398180413500   -2.25033200068871
H         2.66670096264822   -2.94733764417483   -0.96387861580840
H         4.95690748291208   -2.00504912078651   -2.38689231772479
H         5.44288015491495   -1.90065011548115   -0.41799318670874
H         6.98783648067824   -2.01913450323852    1.33327015096389
H         8.36925168042120   -1.02938940308259    1.81260779398423
H         7.89092560105223    0.12746709652752   -0.54907753477812
H         5.34153139408196    4.06465792268725    2.87571232126634
H         3.00724715685938    2.69713285071222    1.30608239046168
