28
 energy: -47.954901441596 gnorm: 0.114478405633 xtb: 6.4.1 (79825abcba525fcdf90b791dcacef51065a7a4e7)
C         1.25079317663537   -0.07343193986447   -0.70196904074682
C         2.72852498427945   -0.14650289896853   -0.38527145544227
C         3.67807860778596   -1.06996721112495   -0.88495761450739
C         3.23478081450463   -2.17009278168400   -1.83545558822870
O         2.09777779053387   -2.92488339510264   -1.41756988811083
C         5.01710333725092   -0.92275211727122   -0.44029862235840
C         5.46062043136350    0.14955025548707    0.34584943204715
O         6.77658629267514    0.37294799754365    0.67257047662112
C         7.75329664052875   -0.64847662506713    0.84351595883069
C         8.63080876522016   -0.70550458490951   -0.38653376070357
O         9.72011284245070   -1.27225060012660   -0.44338277981000
C         4.51408397218737    0.91152246953434    1.03507582294601
C         4.85999400226485    2.01682177960731    1.89481930837229
C         4.99092032898557    2.91528373866031    2.67044557828825
C         3.20370844264559    0.82296351210141    0.53263053270332
O         2.28422009783493    1.75440959826786    0.96462870445156
H         0.65121760923571    0.29878332845334    0.12839120398763
H         0.88899692240331   -1.09774849438182   -0.86780248224953
H         0.96264348335433    0.56271155415816   -1.54707733575546
H         4.06345734589198   -2.80902133080198   -2.11576605350128
H         2.83586309636374   -1.69955836161854   -2.74408375116574
H         2.16823680520808   -3.13820632904960   -0.47146243120684
H         5.80406417670444   -1.58320637590124   -0.78355965624662
H         7.19221350672824   -1.57167830949502    1.00416200099714
H         8.32842926748036   -0.36367446146839    1.73136649210618
H         8.20878164582026   -0.11266161116544   -1.21563600691414
H         5.29306280902138    3.57165283599499    3.45739652544135
H         2.68286875300989    2.29886907350547    1.66409907008196
