28
 energy: -47.951926124517 gnorm: 0.112798491995 xtb: 6.4.1 (79825abcba525fcdf90b791dcacef51065a7a4e7)
C         0.98331799320413    0.12157092923173   -0.45718047353647
C         2.49404612364091    0.05927236582318   -0.40107840318099
C         3.22182208570303   -1.15438895811663   -0.36243853483586
C         2.55617140587117   -2.51968880959390   -0.30675087232337
O         3.13804365003573   -3.47000820576991    0.58511848267209
C         4.63890724884599   -1.18433414040904   -0.30452409264182
C         5.36291841115358    0.00282280067690   -0.12835710261950
O         6.73067097121377    0.07529336311543   -0.01691069303237
C         7.48514210293038   -1.12692821353093    0.09231530809497
C         8.88933726210639   -0.80705802663877    0.55298986676315
O         9.74458148243240   -1.60166044489613    0.93793213527185
C         4.63066779348916    1.18034284690100    0.04141194352688
C         5.27082149569504    2.42015536245479    0.40688064519849
C         5.51415328221763    3.57472325425975    0.59054978555158
C         3.22769492244154    1.21844986105353   -0.04572577002058
O         2.55321897403721    2.40516998547815    0.14519461110222
H         0.71719253198296   -0.37501842599560    0.47561610880217
H         0.41376419230058   -0.19939695910944   -1.34047529396930
H         0.81710966324044    1.19969431930360   -0.34790292513023
H         2.58451055626920   -3.00485616568926   -1.27490270908013
H         1.49558371442034   -2.35715553312817   -0.07248647042723
H         3.30944604122653   -3.09430552853862    1.46549294027016
H         5.01201577377387   -2.20082668041214   -0.27505753514639
H         7.62770993441299   -1.61818032312048   -0.87270726272173
H         6.93690718701107   -1.86089753622335    0.69306142017508
H         9.18278765932748    0.22881349449917    0.31249605800919
H         5.78289953648475    4.49584014102656    1.06035975489475
H         3.19478016813181    3.10971811315184   -0.04618677512957
