28
 energy: -47.950199636603 gnorm: 0.126874990905 xtb: 6.4.1 (79825abcba525fcdf90b791dcacef51065a7a4e7)
C         1.02442528803526   -0.06827193630732    0.30014112301788
C         2.51683672823647    0.08823985094297    0.10638818935424
C         3.25316377390156   -1.10325539312354   -0.09924809746265
C         2.58056784251802   -2.46570948893836   -0.13886112074454
O         3.44104097476636   -3.53167250682251   -0.53938833617293
C         4.66653841576541   -1.07380792234037   -0.21708755709050
C         5.32199506647061    0.12885347552780    0.08048718449495
O         6.69586280315376    0.15819645714760    0.08725430787481
C         7.35214462375824   -1.09669144243965    0.23232072996355
C         8.68180330626037   -0.95568398825331    0.93831415793542
O         9.52308223499998   -1.85183318340399    0.92480063897147
C         4.62092116245072    1.33718340656348    0.08082679905617
C         5.30904921950446    2.59543903851108   -0.07335404705978
C         5.88380908200357    3.64214187361310   -0.07935325506411
C         3.21500597878841    1.32050079364835    0.05841743832245
O         2.35911994120460    2.39680207667481   -0.03489754135564
H         0.66883524038185   -0.89596278066920    0.91334320166707
H         0.62059404764248   -0.21759391007658   -0.71092017417087
H         0.68237242203447    0.91654175062429    0.63934411891776
H         1.68321864679235   -2.50097541022495   -0.74469045836025
H         2.41173467889556   -2.73380711333699    0.91269114120192
H         3.67030671723545   -3.51697156715401   -1.48427540328785
H         5.17768210919981   -1.99759791294281   -0.45932610573404
H         7.64184045479672   -1.42977134339992   -0.76670724351392
H         6.78556214975459   -1.77440792743317    0.88028141528161
H         8.76097906097238   -0.06086111191445    1.57862926530339
H         6.26847248592005    4.61328553544465   -0.30366625516695
H         2.83853644906798    3.17721207569598   -0.36006781698137
