28
 energy: -47.953980276287 gnorm: 0.113546446607 xtb: 6.4.1 (79825abcba525fcdf90b791dcacef51065a7a4e7)
C         1.26913561844882    0.23787658743591   -0.84518732600674
C         2.65375541533825    0.02856887839959   -0.27217221015033
C         3.28835671105519   -1.20554158615649    0.00778713938408
C         2.57308448028438   -2.48033994592745   -0.40875865144610
O         2.94646985495475   -2.73343409648266   -1.76287826499495
C         4.61118655818948   -1.21535369131609    0.52004298364626
C         5.34909517518605   -0.03544998032564    0.68703595784489
O         6.61757209609026    0.11087726913408    1.19494734684078
C         7.43865814158960   -0.97538480891281    1.61009325339598
C         8.43622901481841   -1.40013469072942    0.55617583838146
O         9.09950619747602   -2.42875456925146    0.67028435295553
C         4.75839710469265    1.17789240179069    0.32586841146869
C         5.45351876201928    2.44167388820800    0.33857396481588
C         5.59938163407183    3.60384702336286    0.10608880109349
C         3.39029114853218    1.20774378527991    0.00218186685660
O         2.83300751968296    2.41245225400874   -0.36901284301148
H         0.61989023105866    0.84893670103503   -0.21859402312839
H         0.75566652540237   -0.71519420429307   -1.03393905688133
H         1.43546669797731    0.84410730923335   -1.74337166888408
H         1.51635399845542   -2.31663175423902   -0.23547054754050
H         2.94694302391810   -3.37295030468399    0.11049048024858
H         2.99384748535751   -1.87090740040522   -2.20941328833497
H         5.02928170377549   -2.21072432922698    0.60818526687678
H         6.85263039459250   -1.87669866456884    1.80277847809774
H         7.97931196822485   -0.55659910819456    2.46594391650966
H         8.55987029877363   -0.71932005963301   -0.30300079394568
H         5.87759132794951    4.61456473396259   -0.09994844840700
H         3.54785666958348    3.04515086155683   -0.55149250897516
