28
 energy: -47.946574797756 gnorm: 0.121936671897 xtb: 6.4.1 (79825abcba525fcdf90b791dcacef51065a7a4e7)
C         1.37619409306627    0.02390708071736   -1.01240593443324
C         2.67813800535886   -0.00135889319760   -0.24193094360722
C         3.51317445117225   -1.14341884665691   -0.29230848182061
C         3.09646894748452   -2.42954834332914   -0.98690409675267
O         4.18108701880384   -3.32926435510578   -1.21324002078482
C         4.82297071307608   -1.07826914761625    0.24858930977845
C         5.33488686890205    0.04861257595220    0.90634914801652
O         6.61053779423248    0.13094934006239    1.41068507060072
C         7.47457324473074   -0.94201653452243    1.05196414234113
C         7.79465689015813   -0.90735261959276   -0.42541424696455
O         8.45419873130058   -1.65956843204056   -1.13969161684931
C         4.53358617797987    1.19136126041777    0.84627756245090
C         5.01929311768955    2.48754663349279    1.25185301598055
C         5.46737987790486    3.39447391430685    1.88641813181096
C         3.22703106130939    1.17492777423791    0.32664147943116
O         2.40568549713534    2.28160632613658    0.30855580770769
H         0.91926871486555   -0.89010560001453   -1.39099966997608
H         1.53667180692644    0.46502341034289   -2.00602807214115
H         0.63344300962579    0.69171615324274   -0.56044498780724
H         2.62368533775360   -2.13432304990817   -1.91578844699542
H         2.33592871202902   -2.86510485839730   -0.32507919404815
H         3.79931409561575   -4.08927692147379   -1.68464303557846
H         5.55759571403227   -1.86001842308063    0.09849096092036
H         7.08468013349670   -1.89078644757447    1.42711984164592
H         8.34008976031244   -0.60576594616562    1.63332899173742
H         7.36319043928216    0.00607541340990   -0.86865926599472
H         5.81710568459237    4.24522623371739    2.42984671288193
H         2.93345107425961    3.08919064632080    0.42639774957392
