28
 energy: -47.953929239364 gnorm: 0.116647436149 xtb: 6.4.1 (79825abcba525fcdf90b791dcacef51065a7a4e7)
C         1.09273305977094   -0.08529594007545   -0.51387002103902
C         2.54463783148697   -0.05502904099995   -0.08915308148900
C         3.25311847359987   -1.27237906766230    0.05311000638056
C         2.50990582571083   -2.58337257896962    0.25101552786829
O         2.38452972680997   -3.33382460427474   -0.95655053894147
C         4.65810563084817   -1.23272410216194    0.24499466010756
C         5.35778421854463   -0.01872295825973    0.27991838584439
O         6.72644506669568    0.09777751106777    0.23973784356583
C         7.51123074160865   -1.08815471988212    0.30431275264174
C         8.90011880582699   -0.62513157161012    0.68233595837771
O         9.96373188327554   -1.12104041779077    0.31652471092826
C         4.65698387392621    1.18953151182728    0.25612827211148
C         5.44387597873418    2.39793208783593    0.22344712223585
C         5.87192669554533    3.50083933857315    0.38574283637816
C         3.26463553758130    1.15613574992911    0.06214679066400
O         2.57394130005468    2.34882653085772    0.07230601464260
H         0.66630697423512    0.91738958658041   -0.49610108249064
H         0.48968545620664   -0.64213700713081    0.21680314599685
H         1.01645618799015   -0.53790936640413   -1.50948026223671
H         1.47773640497630   -2.38360654704591    0.51222094170189
H         2.95039146486799   -3.36657767500431    0.88244668037136
H         2.12100906702556   -2.83394908084489   -1.74792389576816
H         5.17283049847094   -2.18567310991084    0.26178252000202
H         7.45045391751525   -1.54779060984999   -0.68460777594020
H         7.19591466014951   -1.78084212449474    1.09230279703433
H         8.78372212203894    0.24292630633981    1.35308743980179
H         6.31516725446247    4.47291824350424    0.38410609661296
H         3.13413418141252    3.14226693264473    0.03692348998757
