28
 energy: -47.950722992986 gnorm: 0.117125443894 xtb: 6.4.1 (79825abcba525fcdf90b791dcacef51065a7a4e7)
C         1.25060450838039   -0.12841620224556   -0.80154031151121
C         2.68214408022041   -0.00062036006951   -0.32858078028487
C         3.64145614003165   -0.98836368190920   -0.65753094637386
C         3.25646930446878   -2.22073026875782   -1.45958666130292
O         4.27283603543932   -3.21848717249889   -1.36688796933789
C         4.95516241935183   -0.89285651586432   -0.13080961554670
C         5.37738563581354    0.26731157729353    0.53274606280773
O         6.63241059844878    0.39577789244747    1.07756540240757
C         7.47048060021028   -0.74755853473147    0.94751072032148
C         8.01204591334806   -1.07882067761927   -0.42481374409724
O         8.33812506610222   -2.22731978594907   -0.71745416270912
C         4.45720265316474    1.28957841727737    0.77728594913988
C         4.88086047404046    2.47865589664761    1.47521718301712
C         5.31771637852934    3.29926654084536    2.22470154947538
C         3.10017443918571    1.09867389353390    0.46199577211678
O         2.17974594676661    2.04816899873472    0.85051023626765
H         0.84165089610538   -1.10158850405072   -1.07214300328686
H         1.00957072384841    0.56440101011962   -1.61978763808109
H         0.70452323624980    0.38653268233402   -0.00245350367353
H         3.19023297013058   -1.98571870420044   -2.51499689655788
H         2.34743799423824   -2.65181883076361   -1.01916883851614
H         3.99843292548356   -3.78226634782794   -0.62362055875725
H         5.61792183263403   -1.65305090675062   -0.52601815276193
H         7.02869841612811   -1.72676755450675    1.14474404062354
H         8.27670147742020   -0.62719409021847    1.67941828333441
H         8.21799207076775   -0.20695258424761   -1.06856247139801
H         5.72122418954235    4.14436937411161    2.73888529181616
H         2.71335203018383    2.83091218804003    1.06775045692564
