28
 energy: -47.948326036445 gnorm: 0.121443698807 xtb: 6.4.1 (79825abcba525fcdf90b791dcacef51065a7a4e7)
C         1.10789857316636   -0.07580803318539   -0.48544081373487
C         2.60855725487652    0.07736151542212   -0.36758216976787
C         3.41866147415826   -1.05093546666163   -0.64108129312001
C         2.94116572875278   -2.33091794707076   -1.30732320578594
O         3.91243848532074   -3.37065625115471   -1.19468793096041
C         4.81634464924732   -0.91010589745012   -0.44352134832374
C         5.30385655486427    0.18980514768097    0.27557281178970
O         6.58912357449924    0.35117648977994    0.73434000429697
C         7.38054397083908   -0.80179974183929    1.00041009853666
C         8.39964343625631   -1.01369274085735   -0.09633037559526
O         9.29191229559438   -1.85600184558587   -0.02292816378583
C         4.43487925607160    1.23466033633723    0.59918068241291
C         4.95383118197943    2.40765738529630    1.25892763400285
C         5.52809835283640    3.23472083029855    1.90092062953001
C         3.06453300223499    1.25023293284352    0.28408283164045
O         2.30838967513366    2.25622268257324    0.84613704564170
H         0.75987984553387   -0.85636898522602    0.19068105029781
H         0.94370911122135   -0.42474215803039   -1.51447359621392
H         0.71568508517244    0.92694337676073   -0.27910365204828
H         2.79767985856257   -2.13439464571042   -2.36292675250693
H         2.03645876817147   -2.73048697216501   -0.82983704466740
H         3.69812075067257   -4.12368253740356   -1.77141125133277
H         5.47113827850357   -1.75523565039709   -0.61769464378767
H         6.77921878076582   -1.71354991516298    0.99389689541774
H         7.92458416483893   -0.77409627806477    1.95089479933234
H         8.33896437742517   -0.43088307033727   -1.03101275774012
H         5.95173608178655    4.14055466352037    2.27695044009796
H         2.86793728688223    3.03172024264351    1.01970451641693
