28
 energy: -47.958401130822 gnorm: 0.116262683294 xtb: 6.4.1 (79825abcba525fcdf90b791dcacef51065a7a4e7)
C         1.42539131732401   -0.07114030289455   -1.06946052370501
C         2.76815028686221    0.02965387114728   -0.37941203523585
C         3.45983508155100   -1.15327578513845   -0.02392044972287
C         2.93008817308696   -2.57151655630169   -0.15881652247730
O         2.97302839107675   -3.08518847747694   -1.48975998740259
C         4.76493337786073   -1.04733830851249    0.52186049818164
C         5.41163127455932    0.17555074051405    0.74745478225789
O         6.67814606541565    0.34193067636605    1.25408813659441
C         7.50438270064163   -0.81044741158214    1.37999085761633
C         7.81099131770738   -1.46284278887860    0.05082816664993
O         8.71007746397508   -2.26547138715611   -0.19093135172636
C         4.68753328707739    1.31658631486072    0.39349732063881
C         5.26012374231855    2.58436874975213    0.77476765712178
C         5.77717317522145    3.60233416654502    1.12459335017508
C         3.38329841522005    1.28189817662233   -0.13104640654506
O         2.73647390504624    2.44530128631063   -0.48851570706013
H         0.95483086248685    0.90571070280008   -0.96051934411750
H         0.76929508741874   -0.85306803529331   -0.66233840791741
H         1.62358697232827   -0.12382756120591   -2.14642819594325
H         1.99291471403730   -2.79991631463864    0.33418236381667
H         3.60505538607014   -3.29686227562122    0.31493022078728
H         2.39828723474372   -2.51995294123174   -2.03360910236673
H         5.20686218332330   -2.03003862239534    0.63292065857667
H         7.01083444441573   -1.56980600129722    1.99048855256060
H         8.41383712060251   -0.38775122285645    1.82088650709692
H         7.16163327854124   -1.17360130559548   -0.79276754065410
H         6.18450571064324    4.58983038301808    1.14286081676283
H         3.30002742538890    3.20469327717829   -0.26413456698693
