28
 energy: -47.949132125336 gnorm: 0.117886339612 xtb: 6.4.1 (79825abcba525fcdf90b791dcacef51065a7a4e7)
C         1.16544523663891   -0.10317747016901   -0.59552802752629
C         2.61335203222075   -0.03054482614513   -0.16237859508854
C         3.42122618698120   -1.16287463123584   -0.42561471455462
C         2.83212089632836   -2.43770507045901   -1.00699061661538
O         2.23693821887436   -3.18203295743769    0.05548140414876
C         4.75087291359799   -1.27662576901410    0.05551044386459
C         5.34024182467577   -0.11304246526414    0.56862520625774
O         6.70849979857744   -0.04835130231798    0.67864577999095
C         7.43564463066902   -1.04439814231272   -0.03244128842551
C         8.84234042849198   -0.52893717746129   -0.23691368448972
O         9.76282930002451   -1.13979423550933   -0.77595925120101
C         4.60895804662693    1.07432988597023    0.65191316910621
C         5.20196982670560    2.28108243184830    1.17400944058872
C         5.61405196714788    3.34300862829055    1.53244043882452
C         3.23269757766345    1.12828354259963    0.36840987591704
O         2.67744975290696    2.38676800760002    0.45552900775860
H         0.63739202874362    0.84814545131608   -0.53488388891555
H         0.53022432568947   -0.67017953397258    0.09918393657261
H         0.93372614720063   -0.53227451941065   -1.57741335977076
H         3.60309933623974   -3.03865045942586   -1.47385819391857
H         2.04122036053746   -2.21667436074686   -1.73621273322649
H         1.89152467061342   -2.56345570405608    0.72154606372879
H         5.26825983313731   -2.21576743527939   -0.09830450035623
H         6.92905119504770   -1.19646491859707   -0.98803616732674
H         7.47986773880395   -2.02691771862352    0.45012267692275
H         9.06062746685540    0.42482599820730    0.27266142342307
H         6.09317955717477    4.11328157223543    2.09681497317717
H         3.37574182166773    2.93485216838650    0.85126579378501
