28
 energy: -47.948850088353 gnorm: 0.113898771549 xtb: 6.4.1 (79825abcba525fcdf90b791dcacef51065a7a4e7)
C         1.02842231880701    0.30066178616675    0.07303480141786
C         2.49930352427214   -0.01004465886520   -0.09813184456498
C         3.12486603534041   -1.24457007870478   -0.39602984828202
C         2.33391682017756   -2.48953165324991   -0.76305251216128
O         2.84945807437721   -3.63204110294375   -0.08040869094519
C         4.53930499164654   -1.27885709486747   -0.49883055970965
C         5.28369570302798   -0.13146796965987   -0.19231916880036
O         6.60512456808497    0.11994596945130   -0.47345285083553
C         7.59166435193127   -0.90276172824743   -0.38800140638470
C         8.78800056562791   -0.36079738432014    0.36123576964151
O         9.61797998238005   -1.01643318085326    0.98756802989816
C         4.68720761117923    1.06003585059886    0.22730752397064
C         5.38213539612076    2.19398310344111    0.78564272883453
C         6.08759609630640    2.98905386013493    1.32984803359089
C         3.28300773794620    1.10638105175132    0.28606844294930
O         2.61607476106447    2.22950800385235    0.72590853408072
H         0.84589747922213    0.81705076544374    1.01513899559177
H         0.30137956708731   -0.52055361514137    0.00494838712101
H         0.75620684652870    1.06949046041115   -0.65957562494462
H         2.31849215397688   -2.71895232531595   -1.82165379677715
H         1.29044205631828   -2.49183923955607   -0.42056424068002
H         3.79045126028044   -3.69313211141195   -0.31787485944214
H         5.00909548723317   -2.12802262820027   -0.98002710628395
H         7.93933621781199   -1.11759521866145   -1.40086547954680
H         7.25179664917915   -1.88331561759551   -0.03704215722372
H         8.79245066393038    0.74236171307986    0.36058853984430
H         6.38652004045941    3.77888973977587    1.98422256886112
H         3.24076468270747    2.96039690560085    0.86796337460987
