28
 energy: -47.950599046909 gnorm: 0.126708429254 xtb: 6.4.1 (79825abcba525fcdf90b791dcacef51065a7a4e7)
C         1.34415138636593    0.08581787693653   -1.05035094782448
C         2.75896873566861    0.05783248548208   -0.51477953718530
C         3.47236521950776   -1.16447968750054   -0.48096951522888
C         2.77641028227556   -2.51077919517038   -0.59655493668610
O         2.73597675664184   -3.23083369795948    0.63511054429664
C         4.83470978460774   -1.01700358419697   -0.11402368007788
C         5.42610401236613    0.16500906265066    0.35252486910617
O         6.70321365454167    0.22229002529287    0.85663716706142
C         7.48873470590991   -0.96269332779229    0.92919651445166
C         8.30842240822930   -1.22147367960393   -0.31476764519109
O         9.12748857926447   -2.13522257509765   -0.38694654292553
C         4.64152699641135    1.32067837620562    0.37334096050707
C         5.16641167972139    2.56710908031476    0.87474477467742
C         5.88388486336500    3.39175244440231    1.35554336907407
C         3.31073430362306    1.28850430485849   -0.07979659579137
O         2.42022080124760    2.32989299239624    0.06909382037249
H         1.33641179035087   -0.28391841404211   -2.07542088954102
H         0.95767398389799    1.11440977696976   -1.06633798564901
H         0.63383672195903   -0.60754348024165   -0.58492648118593
H         3.41775547879592   -3.06687572331258   -1.26956418140413
H         1.83719103580730   -2.35445700835619   -1.14388820649972
H         2.27949954717323   -2.68812631642763    1.30045836544754
H         5.36145216066047   -1.96338507491869   -0.12951179845939
H         6.91142408418049   -1.86234368222988    1.15339390411232
H         8.29244192348003   -0.75759760310489    1.64484924789870
H         8.20039873744600   -0.48193537415774   -1.12618258035028
H         6.26220098345152    4.38522963495746    1.46176139095452
H         2.88738059359574    3.13402826062814    0.35148337706744
