28
 energy: -47.950569135537 gnorm: 0.115409797704 xtb: 6.4.1 (79825abcba525fcdf90b791dcacef51065a7a4e7)
C         1.16359746305920   -0.06415667547351   -0.69834489075171
C         2.60115925923020   -0.04248866695985   -0.22688478720009
C         3.37234175666094   -1.22923698547215   -0.19478039218509
C         2.90641929708982   -2.57174906756387   -0.73405138830300
O         3.09290752598504   -2.50292979309444   -2.14741590920045
C         4.72613175434667   -1.16017878124431    0.22338796498079
C         5.28597317210427    0.08676758333002    0.53366354780156
O         6.59954314817800    0.25512945391794    0.90055257640964
C         7.44450477553499   -0.74890310727898    1.45232444055596
C         8.17793535114273   -1.43274820799277    0.32062770567873
O         9.10487137685336   -2.22710812877280    0.46484334419441
C         4.53713631157404    1.26238756221419    0.44024517681242
C         5.23152314344664    2.47789636296242    0.78790087909278
C         5.93028602485694    3.36997650874566    1.16459063492508
C         3.21198351052441    1.22072118308503   -0.02838256665239
O         2.40724373759848    2.33739606408482   -0.09982592203142
H         1.20242764294294   -0.12276286795914   -1.78581477254601
H         0.84411876246843    0.91110457366486   -0.30538111517993
H         0.56047882679678   -0.84217961946614   -0.21580469613684
H         1.86990286980903   -2.77411197209790   -0.49282244667324
H         3.51346082730768   -3.40795048106084   -0.36201522867710
H         3.85323657765006   -1.91264311458679   -2.28544431033564
H         5.38955668368845   -1.98956055515375    0.01048287435983
H         7.02102302551682   -1.42243305722440    2.20061809618722
H         8.20439644755017   -0.24851302323637    2.06252341849001
H         7.98709316822266   -1.03621177241842   -0.69096427346826
H         6.59308041975569    4.07059919467701    1.62419232579053
H         2.94076793142886    3.13499728234542    0.05444621816441
