28
 energy: -47.956013201030 gnorm: 0.115600193082 xtb: 6.4.1 (79825abcba525fcdf90b791dcacef51065a7a4e7)
C         1.25974540488889   -0.08612658325615   -0.68901356302844
C         2.72360194653399   -0.00734330107402   -0.31452022755816
C         3.56538211985193   -1.14208438159268   -0.40336574704751
C         3.11334877421710   -2.39562015445356   -1.13449470471017
O         4.22686942354108   -2.89069601608196   -1.87751884563755
C         4.87655898611446   -1.04324327595212    0.12901270444702
C         5.38831097330749    0.09970311928933    0.75857764438313
O         6.64271147380474    0.33020371513297    1.27021053419253
C         7.61555390972164   -0.70364895821719    1.16428616044926
C         7.87194158431959   -1.17913103275447   -0.24797592086932
O         8.24081533017979   -2.29088675501081   -0.62073268157818
C         4.49932873580156    1.16654603408117    0.91063926908510
C         4.90070825113011    2.47832691914613    1.35631246460095
C         5.33448642963217    3.53299731254304    1.71054201368239
C         3.23415645317153    1.16472567129126    0.29686912508610
O         2.39041230937732    2.25357171246494    0.34359356732196
H         0.71578341016707   -0.84783700584910   -0.13094924197273
H         1.09373883580975   -0.34000363594929   -1.74523793480167
H         0.77910577767993    0.84825460186069   -0.37622900328690
H         2.25907250468263   -2.06906294372982   -1.71508138773266
H         2.83488063095187   -3.17138578566823   -0.40869424506412
H         3.93805309369738   -3.71157843133001   -2.31148619091116
H         5.60338367423188   -1.78252457573712   -0.18487321314641
H         7.27444345937870   -1.49929135725027    1.83025884637740
H         8.57786231262440   -0.34971527072010    1.55011236969712
H         7.75404898670906   -0.41062175165260   -1.03058376378677
H         5.76442942638503    4.48831659769306    1.92010430199824
H         2.81797144758095    2.89453053421823    0.93602975534235
