28
 energy: -47.951923125398 gnorm: 0.119891962826 xtb: 6.4.1 (79825abcba525fcdf90b791dcacef51065a7a4e7)
C         1.26910354650103   -0.05577867194908   -0.59051250402373
C         2.75216749269110    0.01311558840687   -0.29878837624685
C         3.60708882338026   -1.06833428589527   -0.62081383624287
C         3.21259924177185   -2.37511579423208   -1.28934632515514
O         4.31823022605148   -3.25160104937334   -1.50490823597344
C         4.92216794262032   -0.92771216180457   -0.10780945677646
C         5.33892342270239    0.25284533922960    0.52240275671897
O         6.56560745393313    0.33622216546800    1.13617303626096
C         7.49114107117144   -0.74315454937347    1.06669525548147
C         7.89657118361634   -1.14217203807523   -0.33427351623179
O         8.39101016455987   -2.23923319665488   -0.58527777666007
C         4.50448827625954    1.34713616920751    0.76284303389844
C         4.98487820652423    2.58190158120576    1.33300009897415
C         5.37992414838863    3.59022873565919    1.83617677249835
C         3.14231854391581    1.11552658900439    0.50163693165006
O         2.14403287654530    2.03662371346113    0.73547206339631
H         0.84623345154807    0.91222011338838   -0.85826695025907
H         0.81853536901872   -0.38020208142937    0.35783312915625
H         1.08493658075046   -0.70683712749908   -1.45313771141613
H         2.83418779875925   -2.05503315268097   -2.25260139813429
H         2.41320485005747   -2.86978688660974   -0.72153276058891
H         3.97560904358722   -4.00739029069690   -2.01184394831118
H         5.64731469512469   -1.65092537904168   -0.46059858463531
H         7.08630454883649   -1.68453822608369    1.44461978244640
H         8.43746989059803   -0.46365203890281    1.54262434139148
H         7.89735139965576   -0.34926496581253   -1.10126633371241
H         5.78487497125573    4.46094490608216    2.30443999639615
H         2.55938766743702    2.81214954714835    1.14857706653001
