28
 energy: -47.953792485210 gnorm: 0.115542606906 xtb: 6.4.1 (79825abcba525fcdf90b791dcacef51065a7a4e7)
C         1.35052563058964    0.15715042394107   -0.88598963552031
C         2.74751489752135   -0.10516843914995   -0.36739747270621
C         3.45828631668255   -1.31985061984411   -0.21417910853936
C         2.80413625895297   -2.61959239907678   -0.65349063703253
O         2.59236890340212   -2.61068836560058   -2.06493972101625
C         4.73642298411841   -1.34154059795996    0.40086343921069
C         5.31620030236671   -0.15280638365474    0.86490845548695
O         6.55663146549802    0.08466237967771    1.40653421264577
C         7.47466612647316   -1.00299271770497    1.43322650484293
C         8.45745852736162   -0.77602492107938    0.30676889450056
O         9.14124972673035   -1.65611737631901   -0.21177049271924
C         4.68451802938926    1.05515719286821    0.55934758153650
C         5.32153731123004    2.34269826010057    0.68951528959580
C         5.41886233767891    3.51531901226073    0.89313290872770
C         3.34193456352831    1.07621328497515    0.14173020620185
O         2.66043677636036    2.26733220763219    0.01339657374610
H         0.67335728640327    0.26254066549414   -0.03871805209208
H         1.01995590577546   -0.62510085444066   -1.58343372338594
H         1.32296969682392    1.08140420029151   -1.47498238241706
H         1.83656426281048   -2.63703374732431   -0.16665526461044
H         3.28007579890388   -3.57980578372375   -0.41345953982860
H         3.45442860939056   -2.40410649061246   -2.46464894071939
H         5.14687416987981   -2.33440121469696    0.53904064576099
H         7.01493078593426   -1.98714561951545    1.31916833730336
H         8.00316636792080   -1.01105040014285    2.39280503222817
H         8.55371655309401    0.26860756324725   -0.03448992401541
H         5.79191647053114    4.49724936894140    1.08818587896183
H         3.32644686289453    2.95849368729061    0.16617758931579
