28
 energy: -47.952766522532 gnorm: 0.104867035039 xtb: 6.4.1 (79825abcba525fcdf90b791dcacef51065a7a4e7)
C         1.50890993088461    0.32198492421697   -1.28399573443301
C         2.81575782977071    0.08608576225189   -0.55885563350014
C         3.64246248963792   -1.05695100962086   -0.43989760006910
C         3.29611939409443   -2.40145871752002   -1.05842900512033
O         4.05168208527377   -3.50561129205829   -0.56135222958258
C         4.85559958598038   -1.10572315604275    0.29379225605984
C         5.37893058732687    0.10711298108200    0.76253710657716
O         6.58487660756919    0.24562846055948    1.40668539195622
C         7.42694289940539   -0.86161235063904    1.10430171913097
C         7.32566674634578   -1.21599010950862   -0.36214349987953
O         7.64237502606115   -2.28831890181748   -0.87285188824259
C         4.56810163076636    1.24470725355760    0.76381398927132
C         5.10885930189823    2.40945058166213    1.42066505262978
C         5.53560810995844    3.52021268755394    1.52098814407313
C         3.30040547453630    1.20942223245455    0.15629493254572
O         2.51712915833571    2.31400501261823    0.41329324945796
H         1.21177248320294   -0.47152763474693   -1.96925506796672
H         1.59113431919809    1.24807775871341   -1.86983946251662
H         0.66844613116028    0.47511692879102   -0.59690912210356
H         3.46511218910545   -2.32216664951446   -2.12551037569402
H         2.26162023582270   -2.69680926715251   -0.83769688772076
H         4.92679557892129   -3.55212504616599   -0.98278230793250
H         5.28980635006746   -2.08837230933358    0.43235795594161
H         7.23387792245243   -1.66918110412104    1.81386595867325
H         8.45542914775124   -0.51607744057752    1.25592641399219
H         7.06256752531905   -0.32179831215019   -0.95221133226366
H         5.94454116248238    4.48933313510467    1.70802179839390
H         2.97880651655202    2.90305579045583    1.03336490739316
