28
 energy: -47.948470646056 gnorm: 0.117419034842 xtb: 6.4.1 (79825abcba525fcdf90b791dcacef51065a7a4e7)
C         1.19699353736815    0.35133040856695   -1.02025344688552
C         2.56030069788855    0.04912738264978   -0.43767731416302
C         3.22345426420169   -1.19606763056635   -0.32002779104322
C         2.60732030683400   -2.54321129020427   -0.66034899822865
O         3.52458625852505   -3.62613430994162   -0.81205303676885
C         4.57423977905549   -1.26395294273586    0.10793392381733
C         5.20169138185164   -0.10236314326189    0.57865910775353
O         6.44511841012364    0.03723852835064    1.14683158183078
C         7.47222375040840   -0.94802789304543    1.11857516419511
C         8.29542820701730   -0.83655400315328   -0.14483689243086
O         9.48475825155781   -1.14470886591768   -0.18421779525081
C         4.52769238426648    1.12051551464088    0.53554164514742
C         5.24613332545766    2.26391434389442    1.04247452602005
C         5.76619917740639    3.32938380091552    1.18487563799919
C         3.18560340773601    1.19114178270231    0.12179399369879
O         2.72299171904217    2.48934663861069    0.13989456930819
H         1.25555237696006    1.41978577705697   -1.22642618890374
H         0.52503798643815    0.03885614158722   -0.20879966486697
H         0.94968022571464   -0.24365219009422   -1.90724198068038
H         1.93185933260922   -2.51390911856151   -1.50675451559937
H         2.01630604752108   -2.90207429234844    0.19291685549498
H         3.95444305840862   -3.53321258381118   -1.67933566187226
H         4.96351206580562   -2.27262623145168    0.17412013394439
H         7.02463728862523   -1.94019136139597    1.02801692212112
H         8.17493560562072   -0.80320039675797    1.94645765958040
H         7.81176786092680   -0.38624635962675   -1.02816916929589
H         6.25191667966959    4.21576013830363    1.53102267731357
H         3.42558268485608    2.96650293409268    0.61244453717711
