28
 energy: -47.950056108926 gnorm: 0.124690961991 xtb: 6.4.1 (79825abcba525fcdf90b791dcacef51065a7a4e7)
C         1.31100630274143   -0.23250955028559   -0.44578837032627
C         2.79949047025478    0.01724794711783   -0.33918578007553
C         3.69537061280205   -1.07053771468152   -0.47426291060845
C         3.28466474815259   -2.43052605300562   -1.01462209665522
O         2.42346813100579   -3.15543387515833   -0.13714716759635
C         5.08697846605290   -1.01898772582205   -0.20379785317620
C         5.56312775146606    0.23554524123063    0.20116817216340
O         6.89301223157506    0.52709514769383    0.38778353942164
C         7.65798806935664   -0.50994009172453    0.99265015143665
C         8.02115791021140   -1.52655271150409   -0.06607950431815
O         8.07020052693163   -2.74353877539772    0.09992041586910
C         4.74138564872195    1.33512850746634    0.46044124908910
C         5.24954706191822    2.67518251402442    0.62331064550948
C         5.53669351909070    3.82369403388645    0.77964337984485
C         3.35697700705948    1.15957431722537    0.28731860666388
O         2.52412412190356    2.17687894125238    0.70098566008118
H         1.02872670284938   -0.79611678090182   -1.33471937039345
H         0.74760429112909    0.71054687971410   -0.47484702124480
H         1.01654204624156   -0.87750306791282    0.39038804351168
H         4.06601401038510   -3.16214292160915   -1.18117099973751
H         2.72752719705572   -2.39647739454270   -1.96044531821733
H         1.67413516896970   -2.60824879795382    0.15384951811686
H         5.78576657882107   -1.83660050102185   -0.33240522934020
H         7.06381483082266   -0.97271272188291    1.78367634734381
H         8.57880353587810    0.01057752303217    1.27783197883201
H         8.26207704963231   -1.08688628674194   -1.04874507329985
H         5.98356024294546    4.78115176898523    0.62157032439844
H         3.06903084033459    2.95398145336546    0.91027975591787
