28
 energy: -47.952851606153 gnorm: 0.117566763426 xtb: 6.4.1 (79825abcba525fcdf90b791dcacef51065a7a4e7)
C         1.22045096062624    0.06359811871747   -0.69686311133384
C         2.69243452577479    0.08538965427130   -0.34740991712529
C         3.47117208052053   -1.09669841528117   -0.36639146452827
C         2.95831140233925   -2.52059975462791   -0.50679987253410
O         3.18970161451041   -3.00295211307217   -1.83001866973799
C         4.86158028603772   -1.05656023824794   -0.08794021910136
C         5.46612986456765    0.17146741306647    0.21378226250188
O         6.81011703007471    0.33199245492384    0.45116288303477
C         7.43123025099017   -0.64608334785578    1.27825406441008
C         8.08856623752141   -1.67239371823302    0.38332476072010
O         8.63009229429475   -2.67747744901737    0.83892596247952
C         4.71830051025295    1.35120135580274    0.19043656464964
C         5.20971274849676    2.59593151390205    0.72863730168626
C         5.78564824202566    3.60194624564111    1.01535036459094
C         3.32002883605026    1.29082224989195    0.05416964193592
O         2.48584099681986    2.31965116276505    0.43537137008545
H         0.95482712260681   -0.97809576031476   -0.87533172460976
H         0.90328345834208    0.56756139610676   -1.62046878763845
H         0.65911765561138    0.49924460373994    0.13802244322165
H         1.88952708760999   -2.56568701951493   -0.33599098700908
H         3.50383458551296   -3.24423169717772    0.11360676190731
H         2.95954136667063   -2.33831098547781   -2.50148638992165
H         5.39504765320541   -1.99820656085621   -0.04266221847910
H         6.76482115660492   -1.17253087087588    1.96503984506476
H         8.19066441995113   -0.07092669436368    1.81920041146043
H         8.13341892451373   -1.34194037606961   -0.66823077368444
H         6.03861359580907    4.56005403560076    1.41465007687521
H         3.03666279753652    3.00648271861304    0.84704286711719
