28
 energy: -47.958029833478 gnorm: 0.107290705297 xtb: 6.4.1 (79825abcba525fcdf90b791dcacef51065a7a4e7)
C         0.99838119249748   -0.00170665316549    0.22747311315144
C         2.50390388623523   -0.02374835342714    0.07833016052772
C         3.19879990266319   -1.12709938695127   -0.47290547114083
C         2.52970197019119   -2.43095696707341   -0.87601711306994
O         3.02815419166746   -3.57044178837530   -0.17585074816710
C         4.57753768374726   -1.00112382669937   -0.78208737377452
C         5.28608020388198    0.11090402788724   -0.30676629027235
O         6.65756234276208    0.15694146186666   -0.37981871509093
C         7.37532685984573   -1.04593519985703   -0.12605589934119
C         8.69318504646198   -0.61490733602321    0.47707494544552
O         9.58462597358970   -1.43077067119706    0.70227779461146
C         4.59752858495119    1.18973370835404    0.25322402558069
C         5.35796400486581    2.34566850913758    0.66071870588145
C         5.98278466619813    3.26238195314144    1.10254143695474
C         3.19837687884969    1.17091147752098    0.39250155899499
O         2.60537891033003    2.33770869127975    0.82448618961209
H         0.61618723474342    0.71206675631889    0.95684853340885
H         0.56298679047691   -0.96646747507654    0.52292181206249
H         0.63765526170121    0.31464814766494   -0.75828206714253
H         2.72611306570635   -2.66809526920371   -1.91462028914473
H         1.44001886125099   -2.42631840745133   -0.73922409165767
H         3.99339283733847   -3.45645531783182   -0.20604859742444
H         5.05500934964726   -1.86171906388168   -1.23456055822467
H         7.64403253382680   -1.65485362645116   -0.99204573451033
H         6.88752948213091   -1.66724763829426    0.63301784832907
H         8.85078772370692    0.44833826930645    0.72536992278581
H         6.43919208647230    4.11480023689167    1.55693950874098
H         3.31115490112994    2.94849286624195    1.09548177345957
