28
 energy: -47.953877259734 gnorm: 0.115114591846 xtb: 6.4.1 (79825abcba525fcdf90b791dcacef51065a7a4e7)
C         1.27616043224379    0.07368565639928   -0.81368120942667
C         2.69033724380931   -0.01226629706566   -0.28260283878998
C         3.61199969215652   -1.02996442256202   -0.62749925407304
C         3.37170258968319   -2.27336243022291   -1.46800761678842
O         4.34978242996529   -3.30894101953368   -1.37828572702331
C         4.95274048824272   -0.86869693207323   -0.19300176864363
C         5.37495536741458    0.21315890785607    0.59178553326299
O         6.66178619778748    0.36606378178350    1.04906648418193
C         7.49921606504938   -0.78463783070192    1.01604001624767
C         7.74907671822373   -1.12459593074596   -0.43595866764280
O         8.23620076701603   -2.18274421307207   -0.82844892811142
C         4.42578035090564    1.14552923910021    1.01760041403516
C         4.89497455543041    2.29909093988119    1.74537194705140
C         5.33635960782286    3.38958407573157    1.95025162847136
C         3.12499124151475    1.09632552822959    0.48571257451973
O         2.17469266384435    2.06944999644060    0.70850042165497
H         0.81730352805460   -0.84006407656447   -1.19056974491326
H         1.17133573465543    0.91138599740362   -1.51716651967420
H         0.62884369332564    0.40364533853117    0.00730872843923
H         3.55084565093838   -2.00439054714049   -2.50196619403380
H         2.37314721171706   -2.71539336239313   -1.35122177635768
H         4.36167748972015   -3.65115905924342   -0.46815618242513
H         5.60165365052247   -1.66096899308722   -0.54592105390996
H         7.07139989931290   -1.61462209701307    1.58262825333865
H         8.45291908762971   -0.48324410243292    1.46300841396339
H         7.74738261440223   -0.15319732388866   -0.95879907708525
H         5.69098055816239    4.33777496663153    2.29169018821115
H         2.48334718733764    2.63581428676550    1.43553517932915
