28
 energy: -47.950845864732 gnorm: 0.114892839434 xtb: 6.4.1 (79825abcba525fcdf90b791dcacef51065a7a4e7)
C         1.21810692291157   -0.01737288998865   -0.41421678533385
C         2.71717182808679    0.05295489737221   -0.22137887587203
C         3.54352715224596   -1.03399230306340   -0.59528711317985
C         2.80591171690933   -2.32031834732067   -0.92923981898668
O         3.53003629753026   -3.51125341129500   -0.62194439166667
C         4.95299619581566   -0.92464544481688   -0.47772249889724
C         5.48830615082365    0.27571311544710    0.00925918548492
O         6.85098023332300    0.42513682074979    0.10523450529678
C         7.54844553758917   -0.49714107774215    0.93555935624620
C         8.02286490607699   -1.82773271360117    0.39634308192117
O         7.98725960992599   -2.86784561739585    1.05049416515513
C         4.67511948976734    1.38029306636897    0.27420550322509
C         5.29919624693032    2.59707312755008    0.73297962412423
C         5.65190294773048    3.70203990771668    1.01691294015457
C         3.27834965380598    1.30596999038087    0.12967830698708
O         2.53713271573922    2.46336159975334    0.23319236749492
H         0.88578233045950   -0.27324312077369   -1.42001199165913
H         0.84556998155336    1.00205283859335   -0.24214389793726
H         0.71368665226385   -0.68825281982766    0.29104709396708
H         2.72793488297423   -2.39173638276320   -2.00735276796316
H         1.79500551031737   -2.40843292792014   -0.50918317276705
H         3.79815992180525   -3.39593556134558    0.30563416792715
H         5.58453362554984   -1.77647375197485   -0.69882054099430
H         6.87526697455762   -0.78996277540258    1.74426749969891
H         8.42787152655191    0.04678430993233    1.29739286153769
H         8.25081809826181   -1.72965779357908   -0.67855173515730
H         6.30380847958670    4.36819691590418    1.53907795113169
H         3.12732260782142    3.23139445134705    0.15308560993122
