28
 energy: -47.954991265912 gnorm: 0.112829192465 xtb: 6.4.1 (79825abcba525fcdf90b791dcacef51065a7a4e7)
C         1.27055537435367   -0.13146154697034   -0.34583755135537
C         2.76492080668895   -0.10272623469365   -0.11052016757209
C         3.63872351534885   -1.21617530765372   -0.13923734957084
C         3.12656643616717   -2.55313780955597   -0.64959214271367
O         2.91078280712037   -2.71982174094269   -2.05058004406677
C         5.03598861016575   -1.08297887673041    0.06640824279733
C         5.54005385340230    0.18987382885687    0.36696237483872
O         6.86788405667820    0.48218087768999    0.56656922483759
C         7.61707866490391   -0.53635312536573    1.22062553363081
C         8.05003261334580   -1.73331983134751    0.40446157089775
O         8.04867250271716   -2.83939984744327    0.94074636310369
C         4.69423278322128    1.30142889066986    0.39141653784624
C         5.16922296004758    2.65843190787231    0.50728859498336
C         5.56475509377927    3.77123164243839    0.68393173245727
C         3.30843859176589    1.17061108732353    0.19181903939015
O         2.55183300240563    2.31217643709773    0.03673976023425
H         0.93297681624532    0.89894397835989   -0.23703322708863
H         0.84201708733959   -0.86385317658732    0.35243109542527
H         1.03010813762229   -0.43474753045377   -1.37156634899275
H         2.21287557121401   -2.66705806259675   -0.07889114295595
H         3.81305771425568   -3.34762725007278   -0.32763037545833
H         2.20429841403495   -2.12266836640156   -2.35037683647081
H         5.75748796094978   -1.89072904907471    0.04869744785901
H         7.11419246562557   -0.80084483163154    2.15340224460882
H         8.49846582113511    0.07447257133350    1.44471710927769
H         8.43784486131070   -1.57738526853277   -0.61645286622272
H         5.75304555561863    4.80139431191939    0.47247524002147
H         3.10669304774574    3.09681847823946    0.18193914126076
