28
 energy: -47.953781052226 gnorm: 0.116186231312 xtb: 6.4.1 (79825abcba525fcdf90b791dcacef51065a7a4e7)
C         1.22349450719432   -0.27292588031617   -0.27200496779919
C         2.71555314562757   -0.06160233732002   -0.13624262315776
C         3.64240921844115   -0.94951643610397   -0.73346207940360
C         3.20092677677140   -2.29455634477965   -1.28681236093736
O         4.23528516361336   -3.03472033496636   -1.93440267056992
C         4.99948148341376   -0.57268017868713   -0.90296271423486
C         5.50661048701610    0.46150757821717   -0.10431107809247
O         6.81685026306864    0.81203497659961    0.11664510698379
C         7.75769988857336   -0.25547325338683    0.15814083459467
C         7.14068207123944   -1.52343926695659    0.70390015406151
O         7.61980688810135   -2.60549228169908    0.37130894230440
C         4.63102193549024    1.29988168256024    0.58997957765424
C         5.20820494239590    2.26049353796611    1.49804556413438
C         5.55826235884291    3.06276628379557    2.31032012547939
C         3.24575660793674    1.06248584912546    0.54457934690854
O         2.31331398127493    1.90861572374125    1.10519332274765
H         0.72354615301784    0.56295055736966    0.21676433798292
H         0.89712655212966   -1.16670406080001    0.27778243196424
H         0.83785949748077   -0.37625767610780   -1.29304610458627
H         2.54314525071274   -2.06134526556009   -2.11533183097312
H         2.65097175400166   -2.81816892512682   -0.49338784195468
H         4.90300370915530   -3.29573486659646   -1.27742943947617
H         5.55056582878634   -1.16716936949117   -1.62144999916832
H         8.57144088970984    0.01288666367446    0.83543790713032
H         8.22921980332809   -0.42698001401788   -0.81572916893455
H         6.38864414376301   -1.29105321581819    1.47682699115293
H         5.91840997986094    3.79560771272639    2.99926090578109
H         2.91883301711276    2.57160961443230    1.47721679985959
