28
 energy: -47.951590442311 gnorm: 0.112126480466 xtb: 6.4.1 (79825abcba525fcdf90b791dcacef51065a7a4e7)
C         1.19623880567566   -0.16890273316623   -0.48421938162599
C         2.66950807632181   -0.07265403560203   -0.15324826723482
C         3.57581554246504   -1.13901570529353   -0.36679980237766
C         3.08319094753359   -2.34298209976321   -1.15294327000880
O         4.09489233513046   -3.12747663992774   -1.78392807879716
C         4.90663460041032   -1.07200596268988    0.11983299296278
C         5.35827838823170    0.10630036152124    0.72989910473950
O         6.64590168806650    0.36473666604858    1.13444362259484
C         7.58650716845740   -0.69854884712044    1.24017430036092
C         7.86088227684299   -1.23852862843628   -0.14526504052297
O         8.43818590873207   -2.26333406942570   -0.50235124083556
C         4.49265820109971    1.20148778418104    0.78311707517839
C         4.96903291166361    2.49528171396731    1.20698450794839
C         5.42947300946206    3.56492737999855    1.47122830282665
C         3.15158906778912    1.15605365584042    0.36258488579648
O         2.49206981365479    2.35137653171524    0.17308390129119
H         0.87869305502988    0.52221161408029   -1.26464161315575
H         0.62558093750941    0.23047739752949    0.36576107296394
H         0.81317578597420   -1.18264445789842   -0.65007252263967
H         2.37892978924957   -2.14289945187434   -1.95137398091239
H         2.60825577930990   -3.02474853373555   -0.43476902679280
H         4.27622779817165   -2.91883656117305   -2.71622483087629
H         5.49371537748857   -1.92613857547554   -0.19501453759210
H         7.28337122034398   -1.47062400461333    1.95075950376303
H         8.54824866624374   -0.34412985169726    1.62696733126434
H         7.38519197511467   -0.57173107687645   -0.88423728516063
H         5.85058578118732    4.45844676032031    1.87827795475226
H         2.90007889828028    3.00856386512241    0.76151321682103
