28
 energy: -47.951422626599 gnorm: 0.106014064472 xtb: 6.4.1 (79825abcba525fcdf90b791dcacef51065a7a4e7)
C         1.06443370520138    0.04040430543942   -0.46740902873957
C         2.57120963855653    0.06788937257985   -0.33250571390264
C         3.43806257625927   -0.85878249735304   -0.96017596389914
C         2.74927507353906   -2.06785004531150   -1.57170117126548
O         3.50511554008973   -2.92583224358337   -2.42591715689506
C         4.84645166277066   -0.79791003445173   -0.80169603949824
C         5.33886784899731    0.17867356179806    0.07487646433173
O         6.68104998603873    0.25853587608901    0.35875756186694
C         7.47503050955476   -0.79814173398688    0.88745509372529
C         8.77979910597002   -1.16081395602641    0.21488554718031
O         9.57550959736044   -1.82648174339722    0.87423935188880
C         4.51348526250021    1.07905403588874    0.75283261466520
C         4.95959581934528    1.96249820736850    1.80212331168945
C         5.38211057947271    2.76014302773696    2.58392618882393
C         3.13341177286759    1.08128391530314    0.48307309248954
O         2.29424570719252    1.98415627174345    1.09975362219480
H         0.69078645330991    0.99674644439563   -0.10226432193417
H         0.49129069044635   -0.76543109966356    0.01192180219603
H         0.83951229181514    0.05366287351611   -1.54032626681903
H         1.90591213480223   -1.77920487655347   -2.18727518938572
H         2.40022460149924   -2.71174006015398   -0.75334150275291
H         3.79329247552144   -2.41007871908411   -3.19827900470080
H         5.41773133709804   -1.55471062164031   -1.32536362105898
H         6.87310350665634   -1.70636432948406    0.96320721177013
H         7.75639088420279   -0.51694019880696    1.90820502280238
H         8.99581553395202   -0.83706348330620   -0.81734637832433
H         5.61795746408288    3.36779791823472    3.43040953338121
H         2.80491228393264    2.75670783584846    1.39471021440215
