28
 energy: -47.948405971439 gnorm: 0.123655681247 xtb: 6.4.1 (79825abcba525fcdf90b791dcacef51065a7a4e7)
C         0.95509997570027   -0.05832305768903   -0.34885171825662
C         2.45503364947485    0.03624193677252   -0.17396752686038
C         3.27204417196162   -0.88402075078279   -0.87377829284653
C         2.66339532727824   -1.92254388921730   -1.80181488563012
O         3.60926963419939   -2.61925990193760   -2.61238370468908
C         4.65615942702021   -1.01706964150396   -0.59287951936694
C         5.25889952519478   -0.01851313506442    0.18439640519635
O         6.56831507070387   -0.07462045406983    0.59755770420077
C         7.34035756743687   -1.25554099157628    0.78695357115378
C         8.78648359359934   -0.81507583408431    0.81876541762107
O         9.75194362207944   -1.56073457802851    0.97008032470566
C         4.54146246808451    1.10113148962653    0.61246876898604
C         5.15250487191882    2.17480212113651    1.35702082550234
C         5.86613650718250    3.03178965608529    1.78395639657273
C         3.14026122463523    1.08021310465853    0.49595478265227
O         2.36873848384880    1.86321279617433    1.32742168065999
H         0.39915527492305    0.46353460222898    0.42968747783618
H         0.61406866420615   -1.09409198032212   -0.21282948014330
H         0.76594797704088    0.36386976009413   -1.34277906925124
H         1.91354710011124   -1.40202508803743   -2.38516406741384
H         2.21022543508949   -2.72102744200624   -1.19915063818638
H         3.83028205774775   -2.09140098090793   -3.39858274836545
H         5.25484069404259   -1.88204847350890   -0.85119656422743
H         7.12857363759691   -1.94812914698320   -0.03059887270352
H         6.94812503974614   -1.78747078461331    1.66066560656678
H         8.79316607044499    0.28689790623445    0.76787891024129
H         6.27463214084980    3.81969141123185    2.37872056583608
H         2.97714332611601    2.51288166392065    1.71779275549804
