28
 energy: -47.957248622247 gnorm: 0.113964318432 xtb: 6.4.1 (79825abcba525fcdf90b791dcacef51065a7a4e7)
C         1.01977989115065    0.10587822575606   -0.51570063117102
C         2.44705314205044    0.05241160238210   -0.01634062041671
C         3.14692169599157   -1.17499369841631    0.07189164137435
C         2.43671668835592   -2.50925207685723   -0.08810539826355
O         3.27377384299209   -3.55634446380716   -0.57805035862947
C         4.52912920585330   -1.25230600399730    0.38157915941566
C         5.27941351207163   -0.06993156216439    0.44185113524447
O         6.64445860838587    0.02762464458165    0.56656691910506
C         7.37304805374264   -1.18632949533812    0.41835592342278
C         8.80741498607815   -0.71832517678910    0.51768113369076
O         9.76072531893019   -1.20414489236495   -0.08745921757480
C         4.62946804487384    1.16016021775449    0.31531633420405
C         5.26649098132120    2.45070621700352    0.21944143285350
C         5.81875658753897    3.49869039791638    0.06876438734507
C         3.23930390690635    1.22031190189240    0.11233000950131
O         2.63558088197855    2.45934018858274    0.11164623874892
H         0.40507869644288   -0.59712767773187    0.04595615775090
H         0.98249290340284   -0.17858110228915   -1.57650892500846
H         0.62439109886488    1.12765410026841   -0.47622163211043
H         1.43046372083334   -2.47553096695818   -0.48788820996342
H         2.22231188124069   -2.87500806659180    0.92500677021040
H         3.84103865414686   -3.25681275419001   -1.30885940080265
H         5.03365071322558   -2.20991592689547    0.42372908246248
H         7.14387412477307   -1.63653393794625   -0.55000251021036
H         7.17810927086491   -1.84386932045735    1.27264430123929
H         8.82555627381504    0.06195299071505    1.29730738552350
H         6.28554041405343    4.44884525509700   -0.07518308115623
H         3.35539277237788    3.11199468541649    0.08865460408863
