28
 energy: -47.945755507464 gnorm: 0.122867081698 xtb: 6.4.1 (79825abcba525fcdf90b791dcacef51065a7a4e7)
C         1.19481897754656   -0.08074293243666   -0.39468046991519
C         2.69599066206163    0.02216207676493   -0.23586555404253
C         3.54132706024997   -1.10384881519548   -0.08879224177642
C         3.11421216922532   -2.53336308902313   -0.37913247844910
O         2.83577013053962   -2.78324748345566   -1.75649990875780
C         4.91154851918904   -1.06484679019966    0.27638329260739
C         5.42190024255057    0.20783601689733    0.56687974483601
O         6.71305553171106    0.42142252594290    0.98606728670656
C         7.46149295867381   -0.73952231406407    1.33036691212562
C         7.76051227613154   -1.72516922117407    0.22339371666453
O         8.64049831231076   -2.55827502317622    0.42973210337019
C         4.67572634269994    1.37181352946484    0.36701268803423
C         5.29811136917403    2.64788450453014    0.62152979708395
C         5.82802248609538    3.71670552993009    0.67432707645196
C         3.34941386377856    1.27105475792715   -0.08918999100279
O         2.59635529401757    2.34862156967387   -0.50322574981571
H         0.70570430882948   -0.43511602970955    0.51235853502714
H         0.86076849613476   -0.67709935854078   -1.25514020249871
H         0.86257886130508    0.93547781552536   -0.63722681838524
H         2.22141336477042   -2.99881817184747    0.02058030434714
H         3.97234662416606   -3.17712981218417   -0.14394575493655
H         3.60232506976065   -2.71345874474803   -2.35073346961617
H         5.44878966568431   -1.96996389626882    0.53225497187721
H         6.98692397557006   -1.38083113723298    2.07630930884075
H         8.43858659553374   -0.44854995707552    1.73135506161701
H         7.40162327863391   -1.44284874247507   -0.78083437059553
H         6.15847301771330    4.70769763431708    0.89824529959260
H         3.00145597618812    3.22954246337404   -0.43623712697783
