28
 energy: -47.952983412415 gnorm: 0.122333652824 xtb: 6.4.1 (79825abcba525fcdf90b791dcacef51065a7a4e7)
C         1.36883418376237   -0.08333926909668   -0.67926172745352
C         2.78412044279676   -0.06334057445331   -0.14457218515520
C         3.55954081335920   -1.23203412100992    0.04779038444343
C         2.81508030861004   -2.48865673973978   -0.37282082431421
O         2.55859549892561   -2.61113905216841   -1.77150836642090
C         4.92569134583642   -1.12135305225209    0.41352742865776
C         5.51548042512154    0.14610926455917    0.51480277859272
O         6.76745078142290    0.36408183681940    1.03775358626556
C         7.52435870048155   -0.78128048971972    1.41422307505360
C         8.01664514722244   -1.54703124241291    0.20691952092492
O         8.91584670963228   -2.38288790421669    0.14530441546386
C         4.75160571381323    1.29290009236841    0.28473281420047
C         5.28606109862343    2.61065331752854    0.52635874843052
C         5.52427774146744    3.77695491268145    0.62104322599045
C         3.37319022129914    1.21528529037918    0.01766599463403
O         2.58507356482171    2.33561806875367   -0.13530347077450
H         1.08054042874671    0.89178924809891   -1.07110901263086
H         0.63890502723851   -0.45389142485628    0.05389322901539
H         1.32223252896978   -0.77857454045872   -1.52566177248411
H         1.79613757702233   -2.57011397584434   -0.01417213952456
H         3.35749491937198   -3.38026812723070   -0.03082864450020
H         3.35350636584337   -2.85670180141378   -2.27490296069786
H         5.39225362255656   -2.09343856813104    0.31006377958195
H         6.96599258416356   -1.41479585483809    2.10690507076301
H         8.33153735988398   -0.42118633088005    2.06149673578135
H         7.49076484743337   -1.35711991336424   -0.74406092775927
H         5.99189345297850    4.66153011165534    0.99556230657153
H         3.19864506130757    3.08910813583313   -0.11534343097603
