28
 energy: -47.952518391591 gnorm: 0.118365481124 xtb: 6.4.1 (79825abcba525fcdf90b791dcacef51065a7a4e7)
C         1.10579210903805   -0.08155052172136    0.05113535727696
C         2.61861846273055   -0.10080568368463    0.03342384990638
C         3.35180869622052   -1.26863361988582   -0.28709866949176
C         2.70900987070514   -2.52457772206063   -0.85247438713838
O         1.72264817283994   -3.13899720129596   -0.02380526528404
C         4.76593044573012   -1.16175098571169   -0.32198318562731
C         5.43177615222787    0.05074256281111   -0.09597995187859
O         6.78955694605264    0.25018173179866   -0.16721683269682
C         7.62832926299221   -0.86511464245327   -0.44840845973292
C         8.90093004987584   -0.55927868333503    0.30872669259210
O         9.81140533332896   -1.37686613139211    0.42535325231816
C         4.71277403785156    1.15357410309247    0.37131493820071
C         5.42119928632172    2.35843986655209    0.72758921047382
C         5.70178757052583    3.36214221762601    1.31053305847342
C         3.30790809294386    1.09363354257724    0.35961896482310
O         2.51120152576570    2.20835083097531    0.50907483982750
H         0.72827502553308   -0.80719042593918    0.77117757068697
H         0.76313734992062   -0.47941614874438   -0.91422070401709
H         0.83061014649900    0.97839589285468    0.10314801674640
H         3.39627174104647   -3.30679869699553   -1.15132202987220
H         2.08787589853953   -2.28103846753989   -1.72484148079253
H         2.11431988137238   -3.76692043705144    0.60698483417029
H         5.33811613107969   -1.98966440971871   -0.72260549566432
H         7.75923092450647   -0.93944657061881   -1.53019508635892
H         7.15871128683615   -1.75413506417608   -0.01335670445546
H         8.89079196722787    0.37190958541674    0.90013674029145
H         6.20260478411671    4.14471753463517    1.83794207016663
H         2.98507816955600    3.00283459719690    0.80715558683054
