28
 energy: -47.950956177474 gnorm: 0.113547266355 xtb: 6.4.1 (79825abcba525fcdf90b791dcacef51065a7a4e7)
C         1.28813089677135   -0.11356051616793   -0.18406859518737
C         2.79799433294856   -0.01544974358402   -0.18790487991510
C         3.64159730255499   -1.11511253478174   -0.47634979142766
C         3.12284589059758   -2.41632898162193   -1.06623821000898
O         2.49785280691169   -3.38234636823160   -0.22166301492713
C         5.02993419446605   -0.90567460914449   -0.27377245205996
C         5.55971367913312    0.30133246953067    0.20271068914493
O         6.89547314529908    0.44238270861300    0.49300507795210
C         7.55268982076329   -0.73351476965234    0.95324968014138
C         8.10306527066836   -1.68553285258508   -0.08456073825550
O         8.71679398591427   -2.69226910613446    0.26305314256364
C         4.70473295415933    1.39588504592407    0.35280589176341
C         5.21716462811031    2.70901037847983    0.65877130952783
C         5.56646166686027    3.84399069557832    0.78440163064327
C         3.31831562828323    1.25454619974416    0.16506051246269
O         2.48835581067218    2.33406079091312    0.37833965993929
H         0.93199516871206   -0.28701395640561   -1.19926042714989
H         0.69997984517154    0.75462848673972    0.14448559336228
H         0.79899301983243   -0.85935964909542    0.45346149421858
H         4.03679431436559   -2.95355486517536   -1.28893774342640
H         2.48159816540562   -2.19395464086196   -1.92965823033185
H         1.68990166913290   -2.94256737037144    0.09361441821776
H         5.77328252743260   -1.67909062239328   -0.42409297944721
H         6.96380642263141   -1.24313654212942    1.71903344663837
H         8.48066683358358   -0.31956355423851    1.36272671183457
H         8.00753380217885   -1.37629706549929   -1.13918255776541
H         5.62822922775866    4.91056690531262    0.78589449784307
H         2.96654302525802    3.13460699041078    0.65234409740391
