28
 energy: -47.947690122762 gnorm: 0.114820452957 xtb: 6.4.1 (79825abcba525fcdf90b791dcacef51065a7a4e7)
C         1.43050598129789    0.10003667350038   -1.02637039574751
C         2.81854640726549   -0.00203548096042   -0.43286127001917
C         3.56719306498367   -1.18061946541123   -0.19921053228198
C         2.96239669804586   -2.50177110339303   -0.64532187410938
O         3.71762694890765   -3.53652301747058   -1.27463018429922
C         4.76949792420706   -1.25684930395366    0.54981095514835
C         5.31597974960092   -0.05058240518443    1.00899104995943
O         6.49075030733294    0.08063913544116    1.70978659935837
C         7.42824562978678   -0.88604692033938    1.24814352280087
C         7.58629747567248   -0.71337782288602   -0.24567943650884
O         7.82118963805594   -1.62431566870895   -1.03690263186494
C         4.66851607874940    1.13725874081541    0.66058013174199
C         5.24044429098049    2.37473183887351    1.13181007640991
C         5.47324501512369    3.42507103021686    1.65004084760995
C         3.51697567222785    1.19676517198747   -0.14427493343190
O         3.01352495971531    2.44323668497662   -0.44844461352672
H         1.42758767867572    0.39903206994027   -2.07428567895514
H         0.88755899085465    0.87345589034576   -0.46543105358988
H         1.04756214086545   -0.92245451154755   -0.92746324297343
H         2.14358077288175   -2.26682292811102   -1.31453655309326
H         2.52859862391400   -3.00151827598958    0.23115694525448
H         4.44743925400935   -3.20101948516120   -1.82271945177211
H         5.19522700174953   -2.24581535704713    0.66828554310853
H         7.00615563626489   -1.84126797852434    1.56801155069357
H         8.43897138090090   -0.66836157475373    1.61037953857824
H         7.50417107639013    0.34498657584293   -0.54584650946218
H         5.93348268841886    4.33356172223352    1.97288480460064
H         3.49801627453665    3.13013325864613    0.03946616304818
