28
 energy: -47.950411138868 gnorm: 0.106040488474 xtb: 6.4.1 (79825abcba525fcdf90b791dcacef51065a7a4e7)
C         1.18555519764705    0.08609544859896   -0.69703804151049
C         2.63008322416150   -0.00517727300075   -0.25620235550179
C         3.56732206563681   -1.02232613385761   -0.55805702760418
C         3.30516171546554   -2.20007509430189   -1.48240272430692
O         3.96855975622526   -3.35428617814146   -0.96780284923013
C         4.87860699903740   -1.01738802731749   -0.01686520107672
C         5.40038296460454    0.14481895911847    0.56759466439674
O         6.66456931822218    0.35519827264008    1.06357123551435
C         7.62771966946895   -0.69246302998222    1.02834450858760
C         7.86007756781753   -1.27590745088393   -0.34712066533074
O         8.64006461565794   -2.18896692692295   -0.60972079463395
C         4.49580744468057    1.18729399219216    0.78336048785500
C         4.93102056237737    2.44716914226656    1.33454407525533
C         5.31823683480904    3.46628941250481    1.82181109815647
C         3.13031124890086    1.11335256556847    0.45574668872542
O         2.28411641406899    2.15864382569153    0.75739802827671
H         0.70623911423721   -0.89063074667091   -0.63543254220868
H         1.13928777708965    0.29896366717176   -1.77414904365255
H         0.53827339807928    0.84404421911371   -0.24046739399637
H         3.64686492302748   -2.05127468102670   -2.49955846613328
H         2.21692226093051   -2.34606880307003   -1.50614836991061
H         4.08236192333720   -4.01858540456629   -1.66876367040451
H         5.46345246404719   -1.92300969491345   -0.12241381123370
H         7.48024731960773   -1.55840367260559    1.67743733049655
H         8.60955999224501   -0.35977117009491    1.38256772567336
H         7.22498348752789   -0.75527273672781   -1.08371771890964
H         5.56056471997697    4.45169930145508    2.15594702271574
H         2.67667435476489    3.04306750041050    0.84855001901691
