28
 energy: -47.956077181775 gnorm: 0.110301604936 xtb: 6.4.1 (79825abcba525fcdf90b791dcacef51065a7a4e7)
C         1.12199025990632    0.22259223840163   -0.79330529676959
C         2.58234035726336    0.16068833131106   -0.40231482677039
C         3.39425622167989   -0.99441462546030   -0.50553547668919
C         2.86201390719738   -2.30294546889456   -1.06651746547522
O         3.77401964230261   -3.36939883501688   -1.32735452282805
C         4.76438504451000   -1.00396850721282   -0.13806180097056
C         5.35859945217396    0.16425771128981    0.35865273917014
O         6.64521410517585    0.28294440399307    0.82657962527254
C         7.43371761542354   -0.85611811654779    1.15413499120104
C         8.27600924664975   -1.48901681435252    0.06956776151852
O         9.06247907263800   -2.39975014700470    0.32065786359143
C         4.52448204358323    1.27697413492598    0.49160496222716
C         5.15363440809926    2.35801520227401    1.20994801357656
C         5.72479888639934    3.31733031828361    1.63357211811955
C         3.14158883351500    1.29485183244447    0.23731227781996
O         2.33470343312974    2.41008763067334    0.30701248897001
H         0.53764146163258   -0.67450579268129   -0.59011865575127
H         1.02622361208406    0.49675109711744   -1.85315780321077
H         0.70324540408704    1.06137313189795   -0.22496016187261
H         2.30077771067192   -2.05625502313925   -1.95963907482412
H         2.15142151264658   -2.69583653506551   -0.32703238106553
H         4.36555741255586   -3.17112951437253   -2.07325184165403
H         5.23134303879299   -1.98050600077444   -0.17880604792273
H         6.93334904708635   -1.66952344591336    1.68415937679748
H         8.12892206348874   -0.42372189580381    1.88207225968997
H         7.98890667889733   -1.11464712227517   -0.92762813943054
H         6.20158911544180    4.16119304308242    2.08298179397168
H         2.71745607060870    3.23891541465258    0.64042002044750
