28
 energy: -47.954021468705 gnorm: 0.108980069087 xtb: 6.4.1 (79825abcba525fcdf90b791dcacef51065a7a4e7)
C         1.17573621954349    0.09645236851996   -0.49982288429380
C         2.67722380317245    0.04721684922484   -0.31971474539624
C         3.38667700300722   -1.17035554197782   -0.18436951798268
C         2.77893463352590   -2.54596127692818   -0.40480930892610
O         2.27742901206013   -2.85083321538208   -1.70583137780299
C         4.78166280049115   -1.15526308367130    0.07286189884776
C         5.47808746974460    0.04756433587391    0.25387972148085
O         6.82223869486952    0.21138401282523    0.48805903726004
C         7.55450704695204   -0.62230191873967    1.37982389186140
C         8.54796003585044   -1.43577468672311    0.58131575403078
O         9.04635860610704   -2.52989504889134    0.83727615738149
C         4.75204277443148    1.24025963169126    0.21025645703139
C         5.37433158471578    2.49046093043556    0.57116163600119
C         5.87987000925835    3.50263541231492    0.95313734104811
C         3.39740049253355    1.25804462988993   -0.16658034658313
O         2.63573710448105    2.38488189065026   -0.38969403412538
H         0.80899032531442   -0.17778145007956   -1.48867396805456
H         0.81121446962127    1.07733295683311   -0.16423559130188
H         0.76730419094210   -0.68347947440270    0.15348135797953
H         1.94218098470074   -2.70110538589142    0.26547576989503
H         3.50133656506276   -3.33878435595620   -0.16877935255614
H         1.77730301836128   -2.10246901710447   -2.07381980755024
H         5.24290520532985   -2.13380578696961    0.01768078394342
H         6.91924947626357   -1.37031343297154    1.85924998392704
H         7.97127747738229    0.10944458144824    2.08055055087242
H         8.79833179880131   -1.04781796506685   -0.42057434901306
H         6.42275119948968    4.40395339608990    1.13836200383930
H         3.11831035839506    3.15722498468251   -0.05024615442296
