28
 energy: -47.952332256665 gnorm: 0.111256100806 xtb: 6.4.1 (79825abcba525fcdf90b791dcacef51065a7a4e7)
C         1.28257664094951   -0.13076300042621   -0.62283837628457
C         2.77500751811330    0.02427056566683   -0.42804948912648
C         3.55740732909254   -1.15255278019126   -0.34401349215423
C         3.08521932201858   -2.56734225118398   -0.63666493541236
O         3.08763975050312   -2.69233586256553   -2.05845393436239
C         4.90672867887979   -0.98571804878629    0.06080650082897
C         5.43539984361487    0.26430332481507    0.41083784575175
O         6.73163243838956    0.44030101337844    0.83181912158291
C         7.47299066490232   -0.67721004323566    1.30936571539754
C         7.97991074089091   -1.59906773352904    0.22331209551736
O         8.38097068758387   -2.76068583552189    0.25178196198105
C         4.60710737237007    1.38603739873108    0.49575081068395
C         5.15317177369276    2.60771892074805    1.03408817588305
C         5.40207160073123    3.59751376552645    1.65402910665151
C         3.30442598689701    1.27445295451396   -0.02188623600725
O         2.60709720026308    2.44070906322607   -0.25265083422068
H         1.05955825255946   -1.02146655814004   -1.20973119316876
H         0.81797172946687    0.74588753789224   -1.09532940576158
H         0.88972217140632   -0.32613799112322    0.38185601097520
H         2.11698430390833   -2.86600363922352   -0.25347989985012
H         3.80168619425328   -3.25702861235943   -0.17067022192822
H         3.93813087457561   -2.99060390176851   -2.42354500883362
H         5.55228840315909   -1.84592281672493   -0.06817308994605
H         6.98984002227865   -1.15182207479626    2.16623890308262
H         8.34017411114616   -0.26974277968778    1.84052640945140
H         8.08719518350707   -1.06512421035902   -0.73604945173180
H         5.73360316386916    4.38314771662883    2.29766594964306
H         3.12115437596745    3.14067399031508    0.18370909282987
