28
 energy: -47.956985483469 gnorm: 0.108769661004 xtb: 6.4.1 (79825abcba525fcdf90b791dcacef51065a7a4e7)
C         1.05103171668930   -0.10638993960868   -0.42351330492157
C         2.53854657011540   -0.10855796236299   -0.14670488248827
C         3.34364844508104   -1.27299642659586   -0.15103463347381
C         2.68711822564525   -2.58659600372466   -0.54302935424317
O         1.87689616237405   -3.21502656733975    0.44980922697653
C         4.75412576258246   -1.23897197104679   -0.00346351278313
C         5.38853953210655   -0.00700667684942    0.20712913058223
O         6.71664948780899    0.13766124634479    0.52902118809495
C         7.58857360438029   -0.96852456187812    0.32263556725527
C         9.03326752665494   -0.57057983080525    0.12064177006528
O         9.98747514271492   -1.32828294069153    0.28309192546561
C         4.64048806326761    1.17245722919849    0.17797685090124
C         5.25714079598947    2.46635835103803    0.33940328328459
C         5.86536979303173    3.48510180913997    0.47427719688987
C         3.24884920035803    1.11049294339706   -0.01406404934853
O         2.46766548918390    2.24008922379952    0.10185536308677
H         0.60011551284312   -1.04532560874590   -0.10318910350736
H         0.79762987376429    0.00944301624645   -1.48652407449159
H         0.62526703395278    0.77137150621145    0.07666277517000
H         3.50382906650459   -3.18662723049281   -0.92572294382081
H         2.14362734982291   -2.40265091840349   -1.47947209382259
H         1.89379298495447   -2.69549425564611    1.27163107047626
H         5.22701886798736   -2.21193230638434    0.05181425452594
H         7.32826897635154   -1.49745925658379   -0.59681664724081
H         7.39450940648254   -1.63814780346381    1.16768715398308
H         9.18975984401202    0.46536100916513   -0.22478108237360
H         6.46625265517652    4.36014936720733    0.59524754880400
H         3.00767633171451    2.92377743848848    0.53263881222894
