28
 energy: -47.951481112067 gnorm: 0.108199871678 xtb: 6.4.1 (79825abcba525fcdf90b791dcacef51065a7a4e7)
C         1.07768462667029    0.03005669706474   -0.26041450101016
C         2.58686349161192    0.07323431565848   -0.16120317697976
C         3.35128723597388   -1.10330584094447    0.02730225588402
C         2.70171693827230   -2.45846821481250    0.25496209019652
O         3.60464884928500   -3.46290350038343    0.71641299218755
C         4.76982930589359   -1.09551883625459    0.01962633908033
C         5.38703040070585    0.16208291574072   -0.02586236207900
O         6.73815853364022    0.39718631092176   -0.11303189576728
C         7.59830911398440   -0.66490698561242   -0.51126868695285
C         7.84402212733034   -1.68168958091271    0.58055561259560
O         8.97663401024477   -2.06516227236969    0.86543321427305
C         4.63750947986755    1.33893443216896    0.04345479322866
C         5.38437839307910    2.56779923110994   -0.06869394565684
C         5.95708459349083    3.61527289681799   -0.04079678204681
C         3.23484097288748    1.32908912336461   -0.05555091611520
O         2.53955301785505    2.51655111981102    0.02307293572669
H         0.61938523057732    0.11503393826057    0.72461024008967
H         0.73911037648824   -0.93328236843570   -0.66657578093687
H         0.76305125467114    0.90550745596842   -0.84050814953838
H         2.38476254836675   -2.79071227696186   -0.72619144109219
H         1.86054760152418   -2.38072301449960    0.95676901246075
H         3.49746243145677   -3.81837584342415    1.61515708918245
H         5.32102721536391   -2.00082590329629    0.24308844199808
H         8.55425071627354   -0.16354638330690   -0.67780993365271
H         7.27491358181820   -1.12123630660358   -1.45325980297947
H         7.00221152432922   -2.16772933224348    1.10218813143175
H         6.29571552857131    4.58621655673977   -0.33062392540615
H         3.22495030126489    3.20178908957863    0.09584074354820
