28
 energy: -47.952225755686 gnorm: 0.110707965735 xtb: 6.4.1 (79825abcba525fcdf90b791dcacef51065a7a4e7)
C         0.95371280646651    0.10099619125528    0.01962681785356
C         2.46523902157608    0.05824907083666   -0.03318623201999
C         3.31145100140072   -1.07039529872753    0.08602730693017
C         2.74862006552506   -2.47749982994847    0.20227622641152
O         3.71467382160982   -3.49465591644129   -0.06087173838377
C         4.72813659653049   -1.08587249962648    0.01430882426393
C         5.36342507334233    0.16318609421045    0.04311451602733
O         6.71505467487192    0.39116033494390    0.14081060771605
C         7.61801854364886   -0.63286659072553   -0.26232564332284
C         8.18499431836939   -1.52686420627835    0.81730798123031
O         9.12254714323361   -2.31563197889267    0.71802892740495
C         4.54773916706164    1.29693331427944    0.01413671930513
C         5.28941970086634    2.52669756190814    0.14863243266401
C         5.85047337314950    3.57936096020739    0.09304218126090
C         3.14455925605340    1.30112676814158   -0.07776839390262
O         2.44101834047210    2.48197158919059   -0.17930032840745
H         0.70720218531989   -0.31421574411250    0.99654276783524
H         0.42436098171419   -0.54847662693189   -0.69142406933834
H         0.70217173371685    1.16487464964162   -0.06287497763857
H         1.96965638181931   -2.62501147409997   -0.53594077876417
H         2.33553272212328   -2.69012940374847    1.19740970385199
H         3.99062236511292   -3.50839429358551   -0.99320972754691
H         5.26343225181320   -2.01461026801758    0.17000099886100
H         8.47554160814272   -0.11769902314942   -0.70070830336172
H         7.07712927210364   -1.20171176793749   -1.02653918842613
H         7.69610443004970   -1.51529147299006    1.80616235081626
H         6.23699428691032    4.53445070789786   -0.18945991116956
H         3.09663673084488    3.19785532985000   -0.22716116678537
