28
 energy: -47.951674738561 gnorm: 0.118479760717 xtb: 6.4.1 (79825abcba525fcdf90b791dcacef51065a7a4e7)
C         1.01772222141538    0.09788140395917   -0.25075791383456
C         2.47155939291202   -0.12390620147557    0.10490452571080
C         3.22537900056979   -1.32172677248337    0.07163942724417
C         2.61879813630316   -2.69722520624755   -0.15263570472673
O         2.49214772408219   -3.10315041686232   -1.51509583491184
C         4.64257452322969   -1.25964047844067    0.08076571293284
C         5.34473624593047   -0.05104818455084    0.18489135007640
O         6.71780887238716   -0.00677879580352    0.15125911219849
C         7.52899667007140   -1.01601726183829    0.74278747224077
C         8.91799750343353   -0.53225678013581    0.39213876341669
O         9.91839031574831   -1.19697213207673    0.65364202055578
C         4.59037174957637    1.12086250791459    0.28041872552877
C         5.29479586130092    2.37954620824063    0.28151524679851
C         5.91557936776062    3.37071161566924    0.04028778370448
C         3.18486637474379    1.08419066815727    0.30466341862222
O         2.53122602998600    2.29267886264889    0.41413318632416
H         0.70032959795912   -0.86797919079909   -0.64306958291517
H         0.98475441048955    0.84680432877658   -1.05428093305605
H         0.48055732585005    0.31589997437140    0.67974657749540
H         1.64883632192121   -2.67838592101239    0.32936803999145
H         3.27139703644830   -3.40918184907261    0.37021756495558
H         2.04091029942418   -2.42591318088104   -2.04737863570287
H         5.19282340573132   -2.19171957583169    0.03845668473253
H         7.50650030240184   -1.99719131995546    0.26350241725420
H         7.41211050853651   -1.10048057392014    1.82877640124691
H         8.94242651639132    0.40234808504159   -0.19343547322776
H         6.36759300298996    4.33851665419815    0.01932711538530
H         3.11774664317881    2.98553818020749    0.76134378336819
