28
 energy: -47.959206547077 gnorm: 0.110162307851 xtb: 6.4.1 (79825abcba525fcdf90b791dcacef51065a7a4e7)
C         0.96418042283383    0.03676663811693   -0.14393558626872
C         2.47057954616187    0.04957554196124   -0.00277737195791
C         3.20937813109272   -1.15646096388435    0.05868234386992
C         2.56329056047374   -2.51829432948589   -0.13680773294136
O         3.52182684394060   -3.37506690411904   -0.75669656813984
C         4.56722416800920   -1.17469143994022    0.46892976902464
C         5.25318584656572    0.03712226653947    0.62871932040610
O         6.60844674896327    0.01915671466100    0.85535665676955
C         7.26964547531214   -1.16177726752763    0.41410286575572
C         8.72687897129792   -0.79642554893828    0.24295761960177
O         9.63272869856341   -1.61599594463599    0.10600189871553
C         4.59398675990471    1.21531550633078    0.26971625021937
C         5.34313144317186    2.44619086751995    0.20469873199668
C         5.83230387343088    3.52744718859857    0.07215887039810
C         3.20277039054857    1.26068670102358    0.07012553129887
O         2.61243973362864    2.47475455203534   -0.20776295510603
H         0.57960891783833   -0.29485704946117    0.82025510786499
H         0.57686675805766   -0.59667557514899   -0.95409652493829
H         0.50263151679568    1.00248358980487   -0.38117007405624
H         1.62826285265728   -2.45835317715370   -0.68053440529680
H         2.38648935268452   -3.03048176947072    0.81846630480934
H         3.80347926069706   -2.96299773908080   -1.59123919013015
H         5.08175697386798   -2.10332172380146    0.68395795822089
H         6.88983880634810   -1.49409265276265   -0.55452305012776
H         7.17905760062312   -1.95782361607135    1.16127917055569
H         8.86734764783981    0.29721703105328    0.20839354353192
H         6.27763174219443    4.45952567208909   -0.20044900965958
H         3.30213977520111    3.14510966834643   -0.34759690385470
