28
 energy: -47.951110819561 gnorm: 0.113069378120 xtb: 6.4.1 (79825abcba525fcdf90b791dcacef51065a7a4e7)
C         1.17575967296112   -0.03841016732452   -0.70617913036998
C         2.59611761642424   -0.02712987960155   -0.18484996200679
C         3.46047877689561   -1.14087515395031   -0.31359758887700
C         3.06747476404417   -2.28389193150339   -1.23517022861002
O         4.12603525478948   -3.20554699765998   -1.49423555304718
C         4.81804211183454   -1.13557581135365    0.09795418774528
C         5.31329908051936    0.01091181884527    0.73423653174296
O         6.53474261324114    0.13431298801598    1.35170491013910
C         7.54942141169896   -0.79808241343581    0.99455021057164
C         8.09417406649807   -0.86937062841852   -0.41416003749592
O         9.01368441869431   -1.64743815400018   -0.65936988044585
C         4.49863429463890    1.14565871747568    0.74962202744581
C         4.95486105906372    2.41941943604912    1.24951199027634
C         5.45871427451691    3.35702383835299    1.79080825307827
C         3.14223086214045    1.15280605718471    0.37881662915611
O         2.32775570333898    2.24332364660307    0.59578356036630
H         1.20996701980847    0.25938016091182   -1.75388328126040
H         0.47232642821815    0.69629889712887   -0.29023932773059
H         0.68506046721929   -1.00806108478093   -0.56158240254997
H         2.76942250625479   -1.76088312464069   -2.13580061607790
H         2.14381124424874   -2.76281452128849   -0.88357104911891
H         3.71630634831176   -3.88588533140927   -2.05535269211212
H         5.44317302704781   -2.01366099604838   -0.00934482621726
H         7.13231456600247   -1.79130688674455    1.17468852004503
H         8.38139708504651   -0.67967135970506    1.69737570997554
H         7.45367128534081   -0.47618712785581   -1.22171383565383
H         5.82067142151173    4.26368218297104    2.22481279296532
H         2.94151717835405    2.99647412294247    0.62180041840957
