28
 energy: -47.951130538994 gnorm: 0.108204767627 xtb: 6.4.1 (79825abcba525fcdf90b791dcacef51065a7a4e7)
C         1.52232141140526    0.02297574725367   -1.09683548413979
C         2.83665052249252    0.01254841559700   -0.34733011504785
C         3.62535721960650   -1.15135217568244   -0.18179503565507
C         3.18405058281660   -2.53682013691497   -0.62447167689569
O         3.50585800584105   -2.82274202999578   -1.98528094641332
C         4.95869346266467   -0.93798616071767    0.25302742357173
C         5.46542551977429    0.31306074099457    0.63074802843691
O         6.82506287667853    0.51104207645505    0.65542615500904
C         7.54377969403963   -0.65171273725133    1.05284421733079
C         7.60233132075158   -1.68585934069579   -0.04870675463905
O         7.93043980805408   -2.85718677140354    0.12836131599381
C         4.58786447762141    1.39598504601956    0.72416926495400
C         5.07677861309908    2.62839602605079    1.29217043800917
C         5.35296105638679    3.60528379977527    1.92096710643754
C         3.31519807053585    1.25283529392385    0.14347454886621
O         2.43156673677277    2.31057266734505    0.13570528066092
H         0.79751895488711   -0.72597560824635   -0.77861155179177
H         1.63782731546331   -0.18003948889026   -2.17064406266061
H         1.04656383726413    1.00074885070388   -0.95708098504333
H         2.10126918330370   -2.53681312875327   -0.65753061541185
H         3.50285918652075   -3.35921707756934    0.02987339216844
H         4.44083386639209   -3.07157461840980   -2.08271272207540
H         5.55549106566927   -1.80877905719197    0.01035955927677
H         7.01680719058326   -1.19404168840755    1.84094451303047
H         8.54961824653327   -0.29101282952038    1.29440739167577
H         7.34059153616023   -1.34764501116844   -1.06560575120899
H         5.68006688093017    4.35923722479822    2.60357847519006
H         2.90801804962225    3.09839610357189    0.44706366597805
