28
 energy: -47.946187688103 gnorm: 0.115168489868 xtb: 6.4.1 (79825abcba525fcdf90b791dcacef51065a7a4e7)
C         1.29897718394415    0.10843048474725   -1.08097084473756
C         2.69753139857387    0.00890506781328   -0.51222763867213
C         3.12792957504696   -1.23394034598051    0.01143006840875
C         2.33644379859735   -2.51759233934952   -0.17836839266013
O         2.95230509173561   -3.67040431879456    0.39508833682147
C         4.39363888690017   -1.25856421158461    0.65155096443430
C         5.22817435676562   -0.13752235299541    0.75824814474291
O         6.46781710119437   -0.33851579514387    1.31619694510998
C         7.40906918408749   -1.10665279396479    0.57423751276844
C         8.40257374760505   -0.28070873316702   -0.21129868776886
O         9.32183563774084   -0.73198085783737   -0.89124521287249
C         4.78250605172398    1.12780090168684    0.36850106147659
C         5.47338221596201    2.36227416497494    0.65004163803549
C         5.80885669401874    3.30857197006923    1.29653144615313
C         3.55424090779208    1.12056808676112   -0.31610862884131
O         3.10782404421734    2.33121867680447   -0.80057760838217
H         0.48800726407144    0.11158665097518   -0.35306217365767
H         1.01040229225778   -0.76670902849447   -1.67970035401308
H         1.16005152142032    1.04238564630698   -1.63805633484926
H         2.12648510234116   -2.68210785907873   -1.22830193364993
H         1.37244661074681   -2.29031369641931    0.29618083592813
H         3.23047988909395   -3.36540314635651    1.27553341502133
H         4.95144312316352   -2.11147136183574    1.01861930714922
H         6.95776491016076   -1.88124635214544   -0.04966316491155
H         8.01175327510052   -1.67749071378197    1.28913914170514
H         8.29261670769412    0.81688939521206   -0.19833667329520
H         6.19918040548720    4.28060100893974    1.50679135044255
H         3.82535027149519    2.97151202483097   -0.94127659447354
