28
 energy: -47.959332493953 gnorm: 0.110233210726 xtb: 6.4.1 (79825abcba525fcdf90b791dcacef51065a7a4e7)
C         1.46801159070221    0.05482598792729   -1.09672468046339
C         2.78228584903334   -0.06678829401253   -0.35698068679201
C         3.37897842171870   -1.24887300756860    0.14377713276937
C         2.64437951626284   -2.57558640949265    0.04164183497784
O         2.31989604364968   -2.90307408202018   -1.30912665443030
C         4.65245248464790   -1.19381385747875    0.76636322837569
C         5.36324370284654    0.00684497768825    0.89964028644445
O         6.59052258528599    0.17008138543001    1.49592861378627
C         7.58001515335397   -0.84511110826116    1.36638176763051
C         8.12536096400105   -0.95095584898267   -0.03992433976934
O         8.74284657080146   -1.91082407278145   -0.49641174123919
C         4.73798505734924    1.15168611103023    0.39968392491730
C         5.43609303801669    2.41191195798635    0.47021956357186
C         5.77358861948167    3.54780289730045    0.61793631641196
C         3.45691456548935    1.16680589142426   -0.17997786386521
O         2.91060965411389    2.36214648975745   -0.59517040288756
H         1.54110437633954   -0.69640108136805   -1.88275810623349
H         1.35027323094461    1.04137634857260   -1.56627523809744
H         0.56005800174555   -0.16215272154296   -0.52187048503354
H         1.77385402525391   -2.56875533877007    0.68634886441835
H         3.28360433249622   -3.35986490105077    0.46877414314781
H         3.16051540181972   -3.04416379794876   -1.77714722495193
H         5.09675269861517   -2.13653506989115    1.06167554697728
H         7.20927310974264   -1.83165514808197    1.65309412904784
H         8.30176571445777   -0.57495318837518    2.14500825582823
H         7.80372143589565   -0.03263703612234   -0.55975006826000
H         6.45343447243613    4.36460084921766    0.72772248171375
H         3.57472850590223    3.06592137020766   -0.50427083309830
