28
 energy: -47.954029269207 gnorm: 0.108656200686 xtb: 6.4.1 (79825abcba525fcdf90b791dcacef51065a7a4e7)
C         1.45620303553132    0.14031080796405   -1.35151658291535
C         2.73845864070512   -0.00984029640907   -0.56246446961982
C         3.20081033573415   -1.26252095028875   -0.09220200136421
C         2.33375832395230   -2.49995090825234   -0.25719757614036
O         2.89750945143352   -3.62053217324854    0.42368090786963
C         4.45084443132160   -1.40345138234946    0.56349192805097
C         5.24352427393736   -0.26863028360921    0.78351084022156
O         6.41684643069163   -0.25266762914388    1.49868890976041
C         7.56291549132357   -0.87534394269378    0.92834371019579
C         8.09634961753163   -0.21489908163557   -0.32288074921986
O         8.94163441124721   -0.60792583315564   -1.12415462190750
C         4.79000933071852    0.99196106018329    0.38753151903381
C         5.59086057494275    2.16129215837206    0.65548908226761
C         6.25437958191891    3.14685922191879    0.77537155186325
C         3.48480964533789    1.11137194475386   -0.12195136331920
O         2.91136188951982    2.34816795075408   -0.32484630318437
H         0.58306985753982    0.39908960900428   -0.75301412894379
H         1.30908453129002   -0.77198790476191   -1.94623405254963
H         1.48245631095191    0.92676907574182   -2.11487166697937
H         2.32549262763990   -2.82103152543280   -1.29177351198364
H         1.28735494431741   -2.25928858349210   -0.02640602675762
H         2.80533557507631   -3.39102151477165    1.36411660635524
H         4.81957001021777   -2.33627442760470    0.97241484020455
H         7.39778584213033   -1.94874839519218    0.81233567316702
H         8.30882855987616   -0.88700719046728    1.73061925240501
H         7.70946098807097    0.81329446226725   -0.42345629498759
H         6.70650104368956    4.00471167189225    1.22378835516470
H         3.55000961210565    3.06740482024424   -0.18540788289476
