28
 energy: -47.954948526550 gnorm: 0.104614602378 xtb: 6.4.1 (79825abcba525fcdf90b791dcacef51065a7a4e7)
C         1.30457230172102    0.15756802759045    0.63597713644465
C         2.76512818954545   -0.00848737676491    0.27746613553761
C         3.39018660155993   -1.25547655156144    0.03571280974746
C         2.76633540823941   -2.63418178223039    0.17789999023214
O         3.13397748948827   -3.41744542435365   -0.95719938082616
C         4.75175065514280   -1.22306981394830   -0.36111748287694
C         5.46517817791859   -0.01845980061595   -0.42823269396242
O         6.78856827580094    0.04652612173779   -0.79269782379444
C         7.74285382083926   -0.84080811228978   -0.21957411653566
C         7.64095952647641   -0.94163627549084    1.28566781240492
O         8.25345291452114   -1.79302438867111    1.92676558981307
C         4.81095363080120    1.20748304286599   -0.28463485507694
C         5.46088290222151    2.48413501458178   -0.45271483842014
C         5.67711003030382    3.65389591550152   -0.55700761777836
C         3.47188642353137    1.21259839867407    0.14460965508024
O         2.88035451861881    2.39724812487642    0.52719047539603
H         1.22869926229168   -0.18157688113544    1.66881653525683
H         0.63589593604226   -0.39848196439660   -0.03581299960150
H         1.02356892093924    1.21616130895701    0.68429062145033
H         1.69037617103062   -2.65825361311577    0.30135326178444
H         3.16702141027770   -3.20962068375871    1.02315966851438
H         3.09884547056615   -2.87438131684658   -1.76307628486655
H         5.13466235847210   -2.17808808281338   -0.69972354392443
H         8.66101487388519   -0.36378533098302   -0.56936310113037
H         7.68285789649998   -1.88434243089383   -0.54760611987069
H         6.91552969456146   -0.28815718868021    1.79918203573443
H         5.81273919343889    4.71298171106979   -0.59367200889635
H         3.54297454166733    3.10702095576509    0.56929625587423
