28
 energy: -47.956647767255 gnorm: 0.109775011718 xtb: 6.4.1 (79825abcba525fcdf90b791dcacef51065a7a4e7)
C         1.55735644403823   -0.08771631684586   -1.14035753599129
C         2.88534643338047    0.00159585069779   -0.42077853504075
C         3.75706703795359   -1.10530866121686   -0.28297334550356
C         3.29772846253590   -2.53427124374025   -0.52236764798331
O         2.84841034060736   -2.67350613876515   -1.86989875428242
C         5.07292001626072   -0.97803643742350    0.23153016391236
C         5.56753991284015    0.28771590659962    0.57473670569949
O         6.89808747680381    0.46338584910215    0.87003755954762
C         7.62745916853320   -0.72312394346611    1.16449498591426
C         7.73873476372209   -1.68524160956363    0.00335357806831
O         7.93277288986069   -2.88035958116457    0.21562338217928
C         4.66868824108830    1.35613863729668    0.62061133577158
C         5.09719027882326    2.68513940794609    0.98205588618052
C         4.92280566272334    3.77177849952948    1.44549652337901
C         3.34260337579306    1.20126919070058    0.17914517706160
O         2.51312084819066    2.29861469903204    0.26554315823459
H         1.39466986970141   -1.13577944427815   -1.39061732996525
H         1.56330221527466    0.48632190970028   -2.07740952002477
H         0.73425364775193    0.34797922775283   -0.56192171166359
H         2.45831685778860   -2.77582444021306    0.11837306418648
H         4.11189924223616   -3.22724351280919   -0.27125312958262
H         3.63099686215009   -2.53510525949484   -2.43025043073098
H         5.71190998529481   -1.84430616779659    0.35237676737083
H         7.19262565689682   -1.25153699994567    2.01574244842186
H         8.65287072482452   -0.41976323379805    1.40255338760333
H         7.81293755345876   -1.33119170961530   -1.03881859087128
H         5.07971748738178    4.73980049533240    1.86942384443143
H         2.84270525475033    2.85660064254701    0.98986454311647
