28
 energy: -47.952966069657 gnorm: 0.125816054187 xtb: 6.4.1 (79825abcba525fcdf90b791dcacef51065a7a4e7)
C         1.22359804151771   -0.03276746430043   -0.83156016513534
C         2.61855767831400    0.03744628054140   -0.24976493327673
C         3.54830934461192   -1.00187134002128   -0.49370232853178
C         3.05281229961075   -2.34796538860196   -0.99644395927367
O         4.24855165687562   -2.99099343574594   -1.43671154436279
C         4.90920893626645   -0.95436476069195   -0.09611384039948
C         5.36407040654225    0.17043358242331    0.60566841188898
O         6.67011912193422    0.26074299780150    1.02340078120258
C         7.42346307311001   -0.94686907227207    1.04869336964485
C         7.89806523404625   -1.31371759618130   -0.33928248880581
O         8.73747834424672   -2.16339681524585   -0.62988029674822
C         4.53354545077838    1.28197951119086    0.76771755262116
C         4.95432864241814    2.47302251949590    1.46403448136191
C         5.22173487527307    3.51597370854398    1.98048239576074
C         3.20772081726827    1.20013345329302    0.30634105240544
O         2.35557575936734    2.27757683300623    0.41875825685447
H         0.84338978906998   -1.04943117463137   -0.73476246354462
H         1.28509544512766    0.15965052615162   -1.91175230290013
H         0.60740899257920    0.70079595507656   -0.29853802829972
H         2.38065853319818   -2.12300229348100   -1.81565661661925
H         2.57922503835064   -2.80155811615445   -0.11547183748916
H         4.11455323847441   -3.79322456165356   -1.96968444569423
H         5.51175158351420   -1.85209341639056   -0.03007623767663
H         6.97523304199120   -1.79778256077977    1.56634079685755
H         8.34151373144889   -0.67124002698557    1.57914600953441
H         7.48295089941399   -0.61077621601983   -1.08126208567086
H         5.59303316657024    4.42180344515785    2.40828181121863
H         2.93864499354392    2.94946586189563    0.81018011260813
