28
 energy: -47.950270977747 gnorm: 0.117333977427 xtb: 6.4.1 (79825abcba525fcdf90b791dcacef51065a7a4e7)
C         1.22182584043099    0.00531538548228   -0.75986529753248
C         2.66043026896234   -0.02140347811617   -0.29185735856120
C         3.58876017311570   -1.07247311472925   -0.48571531103565
C         3.11161554596770   -2.32964427162370   -1.19429791786832
O         4.09511877228356   -3.32889301023586   -1.46138698819665
C         4.96208803065814   -0.87213615903154   -0.19208825609185
C         5.46283350498771    0.23339632948866    0.50906825436710
O         6.71953986604651    0.36699268858431    1.04875379342435
C         7.61323654981173   -0.74044071379879    1.08605288584517
C         7.89537201870328   -1.29614665398511   -0.29158731231848
O         8.28892756465207   -2.42573312761024   -0.57472095630392
C         4.55301546271712    1.27076339425019    0.72739519301575
C         4.85387172335278    2.48390126777759    1.44731269067061
C         5.08443818012051    3.55538879550671    1.92136469558196
C         3.21340665759383    1.12884996125419    0.32405063360802
O         2.40263767214962    2.17017913981575    0.72149276993819
H         0.53272674864615   -0.34248602932290    0.00936147249779
H         0.98876353615281   -0.67656810132632   -1.58952699552182
H         1.06591692108586    1.03330809547410   -1.10748610826812
H         2.55540288272559   -2.11011996804272   -2.09759465825235
H         2.34072451074838   -2.83607289932697   -0.59814342157655
H         4.94357744098748   -2.89175537938139   -1.64744893176745
H         5.45505242508886   -1.83546773901620   -0.24018926172071
H         7.23352689061956   -1.60201045575770    1.63962396277937
H         8.62186049458935   -0.48728929055931    1.43066930305024
H         7.85234218117456   -0.53477318186113   -1.08873164363881
H         5.37461307931304    4.52944560172132    2.25062771131246
H         2.91373015852078    2.89932253044581    1.11104385618468
