28
 energy: -47.955478111788 gnorm: 0.113292397231 xtb: 6.4.1 (79825abcba525fcdf90b791dcacef51065a7a4e7)
C         1.04247126553221   -0.01224841322957   -0.38434125008207
C         2.54241346740826   -0.12373059320627   -0.21980204503085
C         3.33824559521812   -1.24386105252776   -0.56051258138162
C         2.64650990507168   -2.57012561365822   -0.83025260673823
O         1.86264944868329   -2.88522462124480    0.32013368529952
C         4.74823239735631   -1.25592175694920   -0.40503617845928
C         5.37312846153425   -0.04168466832903   -0.08928029826468
O         6.73239078178319    0.15869617426665   -0.11521900404034
C         7.67103566097764   -0.91073186642408   -0.15720929032445
C         9.02987958465919   -0.35413458018498    0.20340779816176
O        10.08278017257555   -0.88044345673149   -0.15073277965776
C         4.57850193522997    1.01406450120515    0.36407202862209
C         5.34605066772369    2.05111023414485    1.00897844829200
C         5.89167358753306    2.87613667016821    1.67800664562241
C         3.17304709628776    1.02488192294904    0.31982655571735
O         2.44171971293405    2.10579027985976    0.76307639141107
H         0.82475041915780    0.64116331415353   -1.22884344353609
H         0.63979982388917    0.52244980394485    0.48719486001041
H         0.53736923276439   -0.96387639034634   -0.58730173093581
H         3.36649960026163   -3.37851432487726   -0.78986717769177
H         2.11999658455777   -2.53021004535711   -1.79323422477618
H         1.38812638385200   -2.08182555054957    0.59393701426547
H         5.30048624156870   -2.11830699799562   -0.75808393336234
H         7.60479811594288   -1.35196916387883   -1.15412704986177
H         7.45361519599515   -1.64498966066751    0.62622048638833
H         9.04307083041130    0.62005225640894    0.72086911524665
H         6.58248713601259    3.43992071458251    2.26650172918173
H         3.07991400602012    2.80672874062628    0.97757343580928
