28
 energy: -47.945915346984 gnorm: 0.116798440614 xtb: 6.4.1 (79825abcba525fcdf90b791dcacef51065a7a4e7)
C         1.30199428877766    0.17137702462323   -0.92305433858160
C         2.73805729826446    0.03322259533235   -0.46702317359076
C         3.52090478794687   -1.14423106439909   -0.53686136820366
C         3.07598191517578   -2.51870918228652   -1.00918451489463
O         4.01687918781357   -3.57952342164772   -0.84640036380282
C         4.87284160601178   -0.97581160267838   -0.14153507525034
C         5.33219210706743    0.18386249950204    0.49777836107363
O         6.57165870966448    0.31324148259977    1.07691823099547
C         7.49456296654528   -0.76311026489029    0.94960607853103
C         7.99571826054532   -0.81817317774139   -0.47591610015869
O         8.68335582153447   -1.72392579897911   -0.94258836737902
C         4.53980290103821    1.31751185292980    0.69405485303765
C         5.00335455931254    2.30679567740906    1.63582794809542
C         5.24753117930662    3.06486705549814    2.52559043237271
C         3.25826502468073    1.21090935162459    0.12513080452942
O         2.47149063154338    2.33658760293393    0.24135292052159
H         1.32405337969019    0.27598554602213   -2.00753747089515
H         0.81897836391084    0.97592501230063   -0.35119787393983
H         0.80812172195684   -0.74752848630265   -0.58597959491371
H         2.84824274358255   -2.37530664501997   -2.05850764571284
H         2.16637240595952   -2.80886063859097   -0.46644535326318
H         3.77451641854109   -4.22076798141052   -1.53607867337470
H         5.51242324560793   -1.83271831172205   -0.31468689110672
H         6.92213909584267   -1.67983277310746    1.10731956085558
H         8.26891846879666   -0.56767804463339    1.69950486337058
H         7.78957993766674    0.09622096233909   -1.05761238302850
H         5.54064027404412    3.90220670719122    3.12086485208235
H         2.67427550405011    2.70395803809180    1.11801301725752
