28
 energy: -47.951253603787 gnorm: 0.123038364683 xtb: 6.4.1 (79825abcba525fcdf90b791dcacef51065a7a4e7)
C         1.06564204720913    0.12645440493095   -0.19348372986505
C         2.57308593153509    0.07610111474840   -0.07346071099284
C         3.28038990322828   -1.10875373018748    0.24271138111476
C         2.53245536366144   -2.42369393135862    0.39023026269838
O         3.41803527044412   -3.53711039961690    0.27549050227507
C         4.69359374145231   -1.03953134078363    0.34490886464804
C         5.36093563582322    0.17477643937825    0.13353246954488
O         6.72814066030788    0.24419770396171    0.01373904884684
C         7.53768214660252   -0.83184556438013   -0.44806956014841
C         8.46268547199948   -1.31115968894054    0.64779943179035
O         8.87764799955891   -2.45907645237352    0.79309029289457
C         4.66860800690509    1.36163131707154   -0.11870532492409
C         5.30842402295980    2.64295506780054   -0.29000655490607
C         6.09359916790399    3.51701103558444   -0.07670422411001
C         3.26333915776374    1.31236926070838   -0.13177091373172
O         2.41236714866793    2.39284229435891   -0.04178361684303
H         0.82078402447833    0.66871623876761   -1.10646229540783
H         0.65746560191543    0.74726820792702    0.61620996447120
H         0.50729772472205   -0.81624143623270   -0.23212300316636
H         1.69758908963788   -2.45077601795510   -0.29953296748897
H         2.21111068815876   -2.53379480663959    1.43462411841600
H         3.86893694258684   -3.37502339471369   -0.57068084785701
H         5.18236518672973   -1.95740974072281    0.64812008977856
H         8.10978231992074   -0.38386401590575   -1.26350607459900
H         6.95899267170962   -1.68077522565070   -0.82833959756162
H         8.68075754489347   -0.55727715690512    1.42309673883134
H         6.66433943226244    4.41891690598252   -0.02954888401890
H         2.93863403890673    3.17930666713875    0.17987516302272
