28
 energy: -47.952150497815 gnorm: 0.114963577006 xtb: 6.4.1 (79825abcba525fcdf90b791dcacef51065a7a4e7)
C         1.25965464396955    0.09562342609769   -0.79086926117027
C         2.68334835245302    0.05540343900861   -0.28017697928056
C         3.55175563856465   -1.01988986355379   -0.58634324064190
C         3.13736929444516   -2.39042041792399   -1.09640752586398
O         4.23528791095076   -3.21573441598057   -1.48440846075697
C         4.91517807482685   -0.96388075495791   -0.19862763851430
C         5.38461570958606    0.21388236710097    0.39892645809051
O         6.66327628024166    0.36707831885407    0.87848614327320
C         7.52894422130397   -0.75126261886651    1.04104778620518
C         8.17096385963289   -1.23686768538178   -0.23891335839381
O         8.39949905053545   -2.40759672958786   -0.53586689092802
C         4.51648861339394    1.26735267616449    0.69577926671295
C         4.97782127913667    2.48362141740417    1.31896599911539
C         5.19532153760798    3.51131605941268    1.88686482025937
C         3.14787127509135    1.22237537065195    0.37602685421917
O         2.20500343985562    2.14908734332743    0.76574239373391
H         0.84627533946213   -0.82378948195039   -1.20479033834324
H         1.27242866593630    0.93358690799498   -1.50169673261792
H         0.48755021755413    0.36792950262521   -0.06174582966250
H         2.39682335432975   -2.41538399185684   -1.88664608175497
H         2.68014012240328   -2.76571889946877   -0.17107749511487
H         3.94565935771089   -4.13332403292054   -1.34392691732665
H         5.52619391768647   -1.85606206500444   -0.26193228481598
H         6.96713677393073   -1.55331467704518    1.52479118017304
H         8.32534987942199   -0.32236099329817    1.65906866485072
H         8.41405235352310   -0.41137432305971   -0.92916614412881
H         5.60747103691216    4.30371927998201    2.47306631487533
H         2.67580212166821    2.95445823288944    1.03839967509224
