28
 energy: -47.950581301553 gnorm: 0.111742597144 xtb: 6.4.1 (79825abcba525fcdf90b791dcacef51065a7a4e7)
C         1.38418424973839   -0.14920604154854   -0.93302508109745
C         2.72560765718972    0.00334023459258   -0.24991388246235
C         3.45665732257348   -1.12804447431313    0.18558551650715
C         3.01141483990774   -2.52651656898510   -0.20972520380742
O         3.73999070808060   -2.91526935756717   -1.37383932674338
C         4.76738186372422   -1.00027399157871    0.71289665911266
C         5.35928346141620    0.26638827832526    0.81182986025885
O         6.63674027742667    0.50912613078939    1.25635408492804
C         7.46119565487020   -0.64575256498121    1.37046922466580
C         7.37674078476182   -1.47257545406797    0.10732500500080
O         7.44172787930326   -2.69621055296957    0.00980550349404
C         4.67103127549201    1.36329717871495    0.28774420923162
C         5.41454076729548    2.58869891965331    0.44924782476668
C         6.27329157180557    3.35345061838031    0.77123171282358
C         3.33907674329960    1.27724082103436   -0.15482716575896
O         2.76335903825542    2.41866218483907   -0.66997708441193
H         0.80453185735199   -0.76063788376002   -0.24187573539177
H         1.44729540458237   -0.57195183118189   -1.94541069938847
H         0.87798941720969    0.82263954222769   -0.89838719959729
H         1.95123552404826   -2.65014215278016   -0.39477919743972
H         3.29000908894930   -3.32030799963995    0.49626596909870
H         3.67151268323725   -2.24599500503318   -2.07595973614294
H         5.32499273689614   -1.90553526940086    0.92003783777746
H         7.11421860881828   -1.36027287560654    2.12012944196632
H         8.47023416969937   -0.25529328258043    1.54237387416351
H         7.35315733882523   -0.90249621296831   -0.83683266028378
H         6.96010148053591    4.16063531507075    0.90594358911826
H         3.24917227157556    3.24700546883634   -0.52014863369677
