28
 energy: -47.947769750248 gnorm: 0.138371744855 xtb: 6.4.1 (79825abcba525fcdf90b791dcacef51065a7a4e7)
C         1.32555329628275   -0.03749855753840   -1.03915075011454
C         2.70303146613681    0.05728171834067   -0.42036271967731
C         3.63541836420340   -0.99820719181213   -0.56431597705873
C         3.05590073962149   -2.28393173242685   -1.13115578951936
O         4.09461933676479   -3.22978241861986   -0.87907766613220
C         4.93281079585779   -0.99207534998399    0.00937072691182
C         5.41788153472983    0.16340842294876    0.63717022203023
O         6.68938165505361    0.21460766017060    1.15590466772594
C         7.55220723592815   -0.89302328792876    0.92100165100786
C         8.00619114813118   -0.93047241623905   -0.52080215018564
O         8.62174286554164   -1.85977794382200   -1.03897543145749
C         4.49365516073395    1.20632384741356    0.73565357311112
C         4.84025430136786    2.33153531206340    1.56888067119067
C         5.13006311112643    3.19234720374004    2.34411319150576
C         3.14735563150408    1.17366950779035    0.33094471202391
O         2.35418689292811    2.29883687156138    0.39843396397120
H         1.43065360679581   -0.22054830507601   -2.10825314124095
H         0.68387704223972    0.80609307016314   -0.74893287947860
H         0.85704199962709   -0.85039278940044   -0.47203791509915
H         2.74336768565745   -2.10199257730402   -2.15229715500596
H         2.18023206304473   -2.44276355114935   -0.48763426166952
H         3.71554171710584   -4.07693661490423   -1.16928517046182
H         5.60424916560286   -1.82680577472708   -0.15103802087336
H         7.14674272451932   -1.85023391435386    1.25606750982689
H         8.47059688320943   -0.60105540385952    1.44204252599800
H         7.74240809853987   -0.04551388293733   -1.12433103336701
H         5.39930965741638    3.81063097491984    3.17274685327891
H         2.83108823514306    3.04878877768460    0.79182042692354
