28
 energy: -47.960081646260 gnorm: 0.106438454581 xtb: 6.4.1 (79825abcba525fcdf90b791dcacef51065a7a4e7)
C         1.28748480041331   -0.07891352857425   -0.51040434461819
C         2.78594066128012    0.01503372563253   -0.32296904028849
C         3.57140423687405   -1.15283120440988   -0.17044630721795
C         2.97425103016074   -2.52786384502134   -0.42130266973511
O         3.03190620471947   -3.03499039877158   -1.75419867141317
C         4.91069778694019   -1.01428791030402    0.27618519893582
C         5.45843261267471    0.24218088281574    0.56917209306909
O         6.69682385501908    0.44574754012920    1.12896411790380
C         7.48382371348324   -0.71888254624712    1.35426773136968
C         7.75038640649396   -1.55835921210411    0.12523343959935
O         8.26032349048498   -2.67674780668533    0.13892110865568
C         4.70074960068948    1.38763650007865    0.31341076340782
C         5.35242519829881    2.63382415616074    0.63408887734943
C         5.72275598370527    3.74378220756770    0.87245825840266
C         3.35005528631940    1.28920670228674   -0.06515818035688
O         2.59563786684796    2.40156694239064   -0.37041561996387
H         0.91066943272971   -0.48945479880003    0.42607803996825
H         1.08289365388043   -0.78169524716774   -1.33007622190982
H         0.91044310703665    0.94959903343686   -0.55420279295124
H         1.91698834842047   -2.43867602778601   -0.20278583251234
H         3.51929809113673   -3.19484992039488    0.26001693632221
H         3.94937951252835   -3.12193399353730   -2.06447920287671
H         5.49720020206575   -1.86273797406485    0.60706696987131
H         7.07307578196129   -1.36970807916076    2.12927421342569
H         8.46594851786924   -0.41891358671291    1.73586683385000
H         7.35018716326097   -1.08115311191654   -0.78531316542946
H         6.30664707328376    4.63458833631832    0.95575239387231
H         3.19593282093015    3.16316089229984   -0.30532884219871
