28
 energy: -47.960974891984 gnorm: 0.110644273655 xtb: 6.4.1 (79825abcba525fcdf90b791dcacef51065a7a4e7)
C         1.08261389106658   -0.19122142649170   -0.26364947875255
C         2.58233014070421    0.00349389651947   -0.21605588100740
C         3.54345194839719   -0.89059471926702   -0.74612674481930
C         3.11747763224509   -2.00331078292578   -1.68986636789546
O         4.09612801947629   -3.00220272104659   -1.97547366734875
C         4.94793849637684   -0.72680380951463   -0.63223543007775
C         5.47874924313975    0.31836035781440    0.13616576566007
O         6.80321124488949    0.55353324619599    0.41708119150616
C         7.70064607404022   -0.39173507311857   -0.15525810144606
C         7.79782996098765   -1.54713895157379    0.81525681585860
O         8.44699310062767   -2.58742474428184    0.72918174050981
C         4.54129580234825    1.15186129285624    0.75100168227602
C         4.99642512178188    2.29807785530051    1.49902849178782
C         5.43929708604482    3.22964225278407    2.10071273026723
C         3.15119154839849    1.03138893062958    0.57643198708612
O         2.30371691412267    1.91077899568694    1.21528479477993
H         0.63016180874196    0.76411409086323    0.00121722575547
H         0.83690716830944   -0.95270446652620    0.48960575819230
H         0.65774850246303   -0.49096277764518   -1.22882373789062
H         2.86024202974532   -1.55833213213588   -2.64345553353689
H         2.18473640681739   -2.49403059411919   -1.38110918309584
H         4.15124249598468   -3.49103845977609   -1.13666946861798
H         5.55759195391014   -1.46531462092892   -1.13845650678807
H         8.74467272282480   -0.07090675410681   -0.15583418650358
H         7.43655827284787   -0.63597311008173   -1.19004010600327
H         7.11497433926231   -1.39872805873700    1.66887419147040
H         5.85372194505776    4.03050457997277    2.67366459710678
H         2.79891542186452    2.73058564046827    1.38054570092794
