28
 energy: -47.946051310328 gnorm: 0.123099149111 xtb: 6.4.1 (79825abcba525fcdf90b791dcacef51065a7a4e7)
C         1.36015533358446   -0.03392258237005   -0.75775257217480
C         2.79993755860925   -0.03167634933701   -0.29261804409825
C         3.59554745368439   -1.18734039397935   -0.10401741999223
C         3.22199953810057   -2.62754428321610   -0.41467852816803
O         2.57858351725522   -2.92434731904027   -1.65364462436964
C         4.96177499214975   -0.97925838793494    0.21614713065586
C         5.56271924106372    0.27878366580648    0.36024701111084
O         6.90993204936451    0.43737745037826    0.57998551994377
C         7.50115558897842   -0.64934851763939    1.28424053882688
C         8.14753452499259   -1.70528669931889    0.41620202542787
O         7.94519834822169   -2.88588330309734    0.69236857240943
C         4.69074818924164    1.36930736580385    0.31563197722915
C         5.27761829950366    2.67234238083805    0.51103520457752
C         5.53591218248242    3.83804813502353    0.53068432371804
C         3.30662285147355    1.22864148463444    0.11121048164555
O         2.49707204205592    2.34410838397952    0.11705234647106
H         0.84384765650186   -0.57995373400427    0.03143028033429
H         1.31465437490258   -0.62374220366966   -1.68385415487640
H         0.95216373899760    0.97886877270696   -0.85630893610470
H         2.59725370274635   -3.00716216355211    0.38475336585440
H         4.11419495763845   -3.26433452648783   -0.34664440563346
H         2.72250549897953   -2.12602522831837   -2.18988969007550
H         5.62713010457607   -1.82801309065490    0.31740602997942
H         6.74893063424620   -1.07593446519946    1.95140231305890
H         8.39650911502835   -0.17327698611169    1.69880819974514
H         8.76040178258878   -1.35070588047169   -0.42975682930733
H         5.93443121504555    4.75079934635655    0.91729793198895
H         2.94056404208880    3.20854142357835    0.14324441247564
