28
 energy: -47.968986424723 gnorm: 0.095033971641 xtb: 6.4.1 (79825abcba525fcdf90b791dcacef51065a7a4e7)
C         0.97576000000000    0.11177000000000   -0.04050000000000
C         2.48138000000000   -0.02858000000000    0.01183000000000
C         3.18921000000000   -1.25431000000000    0.03805000000000
C         2.55301000000000   -2.63401000000000    0.08179000000000
O         2.97874000000000   -3.48492000000000   -0.98208000000000
C         4.60684000000000   -1.21907000000000    0.07632000000000
C         5.32363000000000   -0.01462000000000    0.08532000000000
O         6.69582000000000    0.05586000000000    0.06194000000000
C         7.40884000000000   -0.99659000000000    0.70260000000000
C         8.88361000000000   -0.69868000000000    0.55225000000000
O         9.74834000000000   -1.57207000000000    0.53108000000000
C         4.62788000000000    1.19644000000000    0.05648000000000
C         5.34793000000000    2.44625000000000    0.05801000000000
C         5.92803000000000    3.49002000000000    0.05806000000000
C         3.22189000000000    1.17934000000000    0.03981000000000
O         2.49603000000000    2.35100000000000    0.04345000000000
H         0.44204000000000   -0.81175000000000   -0.26363000000000
H         0.69764000000000    0.81258000000000   -0.83996000000000
H         0.60148000000000    0.50900000000000    0.91031000000000
H         1.47185000000000   -2.58303000000000    0.03704000000000
H         2.83157000000000   -3.13653000000000    1.01775000000000
H         2.75279000000000   -3.04221000000000   -1.81787000000000
H         5.12222000000000   -2.17181000000000    0.07401000000000
H         7.22586000000000   -1.95630000000000    0.21434000000000
H         7.17101000000000   -1.02673000000000    1.77157000000000
H         9.16690000000000    0.36749000000000    0.54933000000000
H         6.44926000000000    4.42255000000000    0.04760000000000
H         3.10741000000000    3.10651000000000    0.04935000000000
