28
 energy: -47.955081651955 gnorm: 0.121652164704 xtb: 6.4.1 (79825abcba525fcdf90b791dcacef51065a7a4e7)
C         1.24897973646374   -0.19284187163905   -0.30605643690722
C         2.74421254668428   -0.00108543415617   -0.17630147887157
C         3.61623365696654   -0.89251813755660   -0.84641461158113
C         3.17905970247276   -2.04749921388895   -1.73249207213555
O         4.09405231566062   -3.14099922731742   -1.79698586224370
C         5.01361144825015   -0.70243615282191   -0.69283953935592
C         5.46424866714879    0.39776306374519    0.04949215753503
O         6.77711993343890    0.50994970768012    0.43962361082268
C         7.68906801823272   -0.43580844466246   -0.10845114707966
C         7.46768641154617   -1.73440303186998    0.63380508711126
O         8.37267098170800   -2.55617367460711    0.76308064497349
C         4.62116818168905    1.31141316283060    0.68669286129592
C         5.06143325688010    2.38488732612467    1.54361705351726
C         5.09068372802690    3.29184092381787    2.31985883112957
C         3.23610141817815    1.12058154824264    0.53652179920985
O         2.32323427348931    1.91621880764046    1.19478312386164
H         0.74445557977098    0.47815358522070    0.38874834205871
H         1.04533906909713   -1.25803058566666   -0.12850321096891
H         0.98845053097645    0.12565057033960   -1.32222764785968
H         3.04596463781462   -1.75832546608361   -2.76794979425944
H         2.24270906186429   -2.44546753401850   -1.31895631731057
H         4.56794946344259   -3.09651950457435   -0.94902742229400
H         5.58761459888579   -1.22641553032527   -1.44736013432535
H         8.65311675200666   -0.01948126807608    0.19188950627511
H         7.56295800482660   -0.53299547074485   -1.19234197595131
H         6.43687378320451   -1.91119468175705    0.98473279286930
H         5.31469486371399    4.05780835644053    3.03015114490604
H         2.80935910240269    2.48255933134916    1.81732366432931
