28
 energy: -47.955509817907 gnorm: 0.113221612401 xtb: 6.4.1 (79825abcba525fcdf90b791dcacef51065a7a4e7)
C         1.33543506173878    0.05121552134478   -0.97225668189390
C         2.60837602340256   -0.03673308835433   -0.15910577451593
C         3.39931983721364   -1.21052985056062   -0.18619376022325
C         2.95965267763902   -2.52755904604581   -0.80454845147671
O         3.99556067261537   -3.41098597489545   -1.23299296523384
C         4.75119193995872   -1.17006153051432    0.24180775968535
C         5.29514608885564    0.01693350668006    0.75144022155479
O         6.56731888654718    0.18802559639093    1.24207576247468
C         7.56295736407213   -0.82038343051674    1.10676506091585
C         8.20454556203650   -0.86047220711953   -0.26183258076456
O         8.21245870403143   -1.85838094948905   -0.97955937691232
C         4.55449178496353    1.20141497868066    0.75234033560196
C         5.06380552427235    2.50638032089374    1.09609049503630
C         5.42748866525854    3.59922921337347    1.41134847219557
C         3.20111076496783    1.13367180041769    0.37664272583267
O         2.45869365734785    2.29390950798499    0.32828609640324
H         0.60442560659239   -0.67316974422643   -0.61389321688893
H         1.50805488786117   -0.11194748901061   -2.04519745029402
H         0.79976055436123    1.00775485508536   -0.97078933077350
H         2.27692108203509   -2.42524823753055   -1.63936490823160
H         2.37842001335350   -3.08957888151835   -0.06128172674604
H         4.37332156806159   -2.93004771466506   -1.98902574536968
H         5.23408849538629   -2.13682096213853    0.31612097612921
H         7.24828963240385   -1.82565528469757    1.39544395050853
H         8.31899391490937   -0.56910029889870    1.85871845366290
H         8.76209647946582    0.06426058399204   -0.48763438638460
H         5.96521584454810    4.51528781137059    1.52575300626684
H         3.06911169295642    2.98780693107480    0.62913797960257
