28
 energy: -47.950594208928 gnorm: 0.105082621050 xtb: 6.4.1 (79825abcba525fcdf90b791dcacef51065a7a4e7)
C         1.23773594718226   -0.08398897781180   -0.70527033113479
C         2.70491433207904    0.05569662573105   -0.36292028739783
C         3.57240126170176   -1.04915013032226   -0.53871782868118
C         3.28010212547315   -2.19616221598695   -1.49221671495863
O         3.87019743763926   -3.35575946435677   -0.90550131132868
C         4.86917900387279   -1.00863702737076    0.03496094614784
C         5.29869008078478    0.13818922115248    0.71678084074232
O         6.58272286220586    0.28213044407389    1.18471256825662
C         7.52112495920899   -0.76051366258288    0.94224917103590
C         7.86205602956480   -1.21939431499505   -0.45757102447230
O         8.66141012205767   -2.13483802995116   -0.64199463623951
C         4.49050763204572    1.26712705644234    0.87139795090211
C         4.94462617677060    2.46809112614089    1.52863522584284
C         5.30674167992428    3.54971808465295    1.88208564371531
C         3.20726780951628    1.20307330608425    0.29993433079086
O         2.38769935668956    2.29914477956552    0.46305369575586
H         0.94608574492916   -1.02523971499680   -0.23995278383323
H         0.92956550328284   -0.27487240207873   -1.74267871463035
H         0.60602429342498    0.71667473012479   -0.30303303904760
H         3.71982525428046   -1.97912162054378   -2.45815946799416
H         2.19600793763106   -2.29480150372392   -1.63765815171663
H         3.92051634019754   -4.08086807965664   -1.55147032967995
H         5.63341702922447   -1.72614925693608   -0.23789758352445
H         7.46536409554492   -1.70811839057451    1.48248873610475
H         8.48653146955538   -0.37875619472252    1.29213470780474
H         7.35577108891155   -0.67420457440957   -1.27207941645872
H         5.71632235911065    4.43814962710335    2.31142854665586
H         2.69602284044402    2.84427307095557    1.20628141159286
