28
 energy: -47.950212646664 gnorm: 0.119259490412 xtb: 6.4.1 (79825abcba525fcdf90b791dcacef51065a7a4e7)
C         1.04508491880753   -0.00787222686042   -0.35863635858320
C         2.55381815483003   -0.10735667385428   -0.30246797713172
C         3.34159629767509   -1.28224320434100   -0.35878780722569
C         2.54089843923906   -2.54606657040601   -0.62687186067341
O         1.54053415592409   -2.87946016038234    0.33501858217899
C         4.76000489394454   -1.29930699398753   -0.34439973565769
C         5.42494707649134   -0.13390413618616    0.06088611731319
O         6.77007487538363    0.07767358370813    0.24604932705697
C         7.75442889110289   -0.93219709264903    0.05187901689392
C         9.10397105559788   -0.25053345396965    0.03257463187423
O        10.09908651872294   -0.77938734920041   -0.45841926032184
C         4.69112026232216    1.03845889492919    0.25742891452130
C         5.22064000314005    2.21637098895372    0.89979262429897
C         5.68185110402562    2.90061155512460    1.76296751356661
C         3.30492552128337    1.04986372992549    0.02139490371077
O         2.57472309970759    2.20310082179702    0.21250136203081
H         0.54827267062142   -0.74192282554928   -0.99257682069968
H         0.72731441552957    1.00136815392349   -0.65541476040034
H         0.67563413756774   -0.25687697958846    0.64307197362463
H         3.28227230380529   -3.33581440768323   -0.63997135054384
H         1.92656831624794   -2.49623804463855   -1.53585961788925
H         2.03397296643243   -2.91595489856021    1.17214267262909
H         5.20990742109895   -2.25195166664728   -0.59617575323163
H         7.65580898098692   -1.40689941657456   -0.92682144755796
H         7.70196358145501   -1.73983013442949    0.79021812558009
H         9.12722958966362    0.73000568313413    0.53753230969409
H         6.23722620380294    3.43886062873509    2.50002158481397
H         3.22880477708998    2.86673523035935    0.48887465261965
