28
 energy: -47.950817570955 gnorm: 0.119040763386 xtb: 6.4.1 (79825abcba525fcdf90b791dcacef51065a7a4e7)
C         1.49462275516545   -0.06604961135778   -0.96724440036874
C         2.80947994531482   -0.00272683543513   -0.22127600958170
C         3.51058313739008   -1.20046960034650    0.05799319506969
C         2.95420531206129   -2.57553434131547   -0.27348275135364
O         3.17367638479833   -2.94355291505895   -1.63491875412073
C         4.82840679757214   -1.12271383444833    0.57729657357640
C         5.37224623747104    0.09873077542402    0.99786798536847
O         6.64373371207349    0.33119629739060    1.46444996994776
C         7.58539775783637   -0.72171341336009    1.28797419064082
C         7.48470141787928   -1.35640248265198   -0.08072302401251
O         7.87980019300036   -2.48339275394927   -0.37193792188544
C         4.72030905969363    1.27371731393715    0.61583327638413
C         5.30669795815891    2.58988887004261    0.68170970617227
C         5.67118716457666    3.72699002027359    0.67074072087051
C         3.49108349216552    1.22991905866872   -0.06568284993249
O         2.75685540661148    2.36822215233587   -0.32033602551404
H         0.91756995669885    0.83159969643933   -0.74640736295702
H         0.96144261063238   -0.97584250448672   -0.65802361817254
H         1.69905610809950   -0.19516706182666   -2.03656779362369
H         1.90319215496685   -2.59880824621522   -0.01206714411394
H         3.37234866898167   -3.32296294466798    0.41401251643840
H         4.01793332870541   -2.61908402218968   -1.99204704667668
H         5.51356074465154   -1.94758278536937    0.73056307008518
H         7.53507805866883   -1.45189238755879    2.09867103843942
H         8.53903038486096   -0.21910955202866    1.48327538254731
H         7.11547399673170   -0.64766322919184   -0.84120970941882
H         6.33939446968308    4.55374113690412    0.56404552762606
H         3.14584621592332    3.19514020263909    0.01058443092993
