28
 energy: -47.956546142452 gnorm: 0.108488854817 xtb: 6.4.1 (79825abcba525fcdf90b791dcacef51065a7a4e7)
C         1.38921818874887   -0.13266195344471   -1.00529442288820
C         2.73906208289626   -0.10191449218909   -0.32242979779418
C         3.56263502148991   -1.23492107782632   -0.11712903573212
C         3.11922447135920   -2.57533690671901   -0.68007497638648
O         2.77386528554105   -2.53704940058482   -2.06440669856979
C         4.89131483360131   -1.17004336088292    0.37560010389285
C         5.35047000237631    0.06332186168382    0.85784003741687
O         6.64147667855851    0.44853810265960    1.12863439519872
C         7.66730265402033   -0.52939370645582    1.26214161987684
C         7.83883679501012   -1.45078918743051    0.07558844433856
O         8.54845646372638   -2.45039760006104    0.16635836082666
C         4.53650716039173    1.18999066459433    0.71766911521812
C         5.11731247739837    2.45633228902131    1.09122405766898
C         5.64298108274516    3.51484717093426    1.26207631452622
C         3.27959530989099    1.14177293258983    0.08899935867710
O         2.51916579474945    2.28512944197381   -0.02997921300190
H         0.90208445833205   -1.10704491996322   -1.03378598095209
H         1.45342447359421    0.17543799568029   -2.05818265903057
H         0.82161680060439    0.64732522905437   -0.48436689136688
H         2.22904361757773   -2.95706175117334   -0.19492279156423
H         3.99139383330778   -3.24096661233897   -0.63107670247068
H         3.48714741913769   -2.09646238624999   -2.55705479722621
H         5.60668649350264   -1.98235140683871    0.33395439293928
H         7.66150175600363   -1.01291901063141    2.24147425713137
H         8.54375072711845    0.12762079424544    1.28055646259772
H         7.28115360720254   -1.18607845361703   -0.83868607986557
H         6.25970827719236    4.35643313134340    1.49182164115882
H         2.99046182680977    3.09269548506376    0.23522410226161
