28
 energy: -47.948584861368 gnorm: 0.119419554786 xtb: 6.4.1 (79825abcba525fcdf90b791dcacef51065a7a4e7)
C         1.17453744849766    0.05653636879233   -0.70154142147521
C         2.62241411926060    0.00730339065686   -0.26501270547285
C         3.34490192936207   -1.20083163497238   -0.41516544478981
C         2.70215035937937   -2.44823419166497   -0.99919705889850
O         3.74872901315493   -3.40980037027881   -1.13025746066618
C         4.71598023392970   -1.19843060168222   -0.05113290524145
C         5.25895373972388   -0.02253890984762    0.48461618090621
O         6.53917372567627    0.04179496023473    0.97991134850004
C         7.53690479376891   -0.96900070944367    0.88337867920061
C         8.64878758272019   -0.51720899762959   -0.03635114229871
O         9.31189075948288   -1.36756334103406   -0.62644257436661
C         4.54281096303861    1.16962022332071    0.61676038511147
C         5.05278141399687    2.33180092223851    1.30215470597317
C         5.36110443223631    3.38312885518662    1.77714757021823
C         3.18214966187985    1.19734636902707    0.26290998840346
O         2.36242521969446    2.30028720446453    0.36895906878053
H         0.64736193257682   -0.70075290633123   -0.12177237927276
H         1.10767419144908   -0.22101210694695   -1.76272840653210
H         0.86705762300865    1.10798300565008   -0.65872830832102
H         2.38719749291185   -2.08652717279940   -1.97052665389894
H         1.93038718049325   -2.82123691250886   -0.31261589293100
H         3.37902479459445   -4.28778321728121   -1.32533534264348
H         5.25647458723017   -2.13632213756055   -0.09063806349527
H         7.35615125361662   -1.94071870037440    0.41860444903627
H         7.87890286073001   -1.17430485572300    1.90370015380663
H         8.79469556868846    0.55800637111585   -0.23535613288170
H         5.75529512997703    4.30337445397071    2.15019449137682
H         2.92656274314667    3.08538361693415    0.46889976040432
