28
 energy: -47.948024499864 gnorm: 0.121215973554 xtb: 6.4.1 (79825abcba525fcdf90b791dcacef51065a7a4e7)
C         1.27845909560301    0.14347216123603   -1.05552760848556
C         2.68853339856825    0.09258446034886   -0.50924110107424
C         3.52341064221105   -1.04660435084322   -0.60595489878948
C         3.03008612580729   -2.31328210517890   -1.28595050969167
O         3.58633851733189   -3.39494769959361   -0.53916001650224
C         4.83195380239159   -1.02379134610825   -0.05861996552748
C         5.38452834231039    0.06744056938129    0.62580889146936
O         6.65797193343244    0.19093283239644    1.12731705246625
C         7.67191825587733   -0.78800170086040    0.92708279120720
C         8.22382933129969   -0.92682219852613   -0.47378303422785
O         8.96098987230847   -1.80577709760605   -0.91542638624792
C         4.53615656865197    1.15805537698834    0.83169876289624
C         4.99449501049664    2.37580292639985    1.45420657930460
C         5.12523579025255    3.30378623735941    2.19429140350301
C         3.22916185965160    1.11063284674638    0.31508097171896
O         2.32494264143519    2.11234663675245    0.59549165308430
H         0.69637778672941   -0.00156718428045   -0.14575942140493
H         1.23582449099399   -0.72643210837942   -1.72565485172717
H         1.11203580878768    1.10143577988134   -1.56201139514276
H         3.31622015388867   -2.35570770817425   -2.32990253863030
H         1.93631666099211   -2.28705862876176   -1.19043182352818
H         3.17677273830296   -4.23241938543647   -0.81572378272534
H         5.38098776758136   -1.90902135084484   -0.35571402529277
H         7.27813727523955   -1.70918625238441    1.36214410295741
H         8.51792874843307   -0.49148771929180    1.55677643647896
H         8.03898687173173   -0.01198292287209   -1.06190086246052
H         5.36381556452620    4.13497073500988    2.82167828096990
H         2.83734101505258    2.93081079319994    0.70585467439159
