28
 energy: -47.950848222058 gnorm: 0.113911932644 xtb: 6.4.1 (79825abcba525fcdf90b791dcacef51065a7a4e7)
C         1.23822510536151   -0.04747936824932   -0.62413417104711
C         2.70072005682745    0.00548702952657   -0.23990621616510
C         3.57242847430550   -1.08838555556839   -0.45829098167459
C         3.14404100818660   -2.36190098436358   -1.16883884404540
O         4.22581739534651   -2.99887268139858   -1.84791183050237
C         4.94599751583939   -0.96763649686771   -0.12496093961092
C         5.34558863240339    0.25591373650040    0.42985465432166
O         6.60170517256068    0.40042941300951    0.96809792928131
C         7.48159386220335   -0.71262853269557    1.08382015324238
C         7.93978203979233   -1.38137749984583   -0.19255770716480
O         8.52767442803539   -2.46052076224894   -0.22168825335953
C         4.51940406965336    1.35332988995539    0.68414348526139
C         5.03288000921537    2.53822390255193    1.32669139737422
C         5.32750216814278    3.56803673138170    1.85456925263303
C         3.14928239894676    1.17511724205244    0.42263850595618
O         2.23346514606524    2.14633697966460    0.76568956342470
H         0.84567736840227   -0.78258493507255    0.07804763791792
H         1.05363484520413   -0.47693337807166   -1.61867796187150
H         0.72760156980042    0.90090272072305   -0.41980148028366
H         2.42137462892709   -2.01538095363172   -1.89766366980982
H         2.66831177622529   -3.14253818733592   -0.56020892348943
H         3.92761881242908   -3.59938214037545   -2.55222458943271
H         5.64178333745360   -1.72521191003963   -0.46451493537162
H         6.99905193836375   -1.43911694988626    1.74130829479550
H         8.44154527232876   -0.49274994310337    1.56373168410641
H         7.93135619767834   -0.80977682948922   -1.13605221911275
H         5.67356345518690    4.54145089687806    2.12679840802234
H         2.68684925161959    2.99362632380578    0.91115187243656
