28
 energy: -47.950711128045 gnorm: 0.118043953548 xtb: 6.4.1 (79825abcba525fcdf90b791dcacef51065a7a4e7)
C         0.97034208644377    0.15853499509620   -0.26042964313223
C         2.47163606951806    0.01904343213698   -0.13399182611441
C         3.11314610747280   -1.23750576036783   -0.01705720103988
C         2.49158309306423   -2.62315823633172    0.04508996067285
O         2.96569112589116   -3.49018964165948   -0.98476018938910
C         4.50550666155413   -1.22799261945381    0.25427793203291
C         5.28984062254514   -0.06636778207794    0.25020810808698
O         6.65891881840755    0.04715173948632    0.28423133348992
C         7.46740408024059   -1.12424605794353    0.31016422806644
C         8.83844105699235   -0.67414716637614    0.76179530668110
O         9.92733642695766   -1.08763393496993    0.36891899474175
C         4.64210914009009    1.17079688907567    0.21234674417806
C         5.38853057885780    2.40447142053184    0.17491158567598
C         5.96187377347605    3.44831694833476    0.08752841830832
C         3.23908892944551    1.18323364298517    0.11876455796384
O         2.54022512750624    2.37110569259731    0.13367906855797
H         0.65718873812392    1.04698945104995    0.28739959109542
H         0.40546259570275   -0.76081812559434   -0.05228867378288
H         0.70230592183634    0.40859833075319   -1.29364877348009
H         1.46297275832503   -2.76856941126955    0.35221341169313
H         2.97163999034231   -3.01646105343241    0.95118123894809
H         2.59614932071502   -3.15835316810572   -1.82077088165380
H         5.03652181605736   -2.16915174201165    0.32896228428467
H         7.48362180825849   -1.58242835946184   -0.68116253416426
H         7.20917641017618   -1.87317193687112    1.06686554342150
H         8.71548971843445    0.16427911652675    1.46812706564637
H         6.62185419547292    4.28286852613018   -0.00917617572494
H         3.19590024271258    3.08598359103524    0.19413896784229
