28
 energy: -47.952814167724 gnorm: 0.116131840908 xtb: 6.4.1 (79825abcba525fcdf90b791dcacef51065a7a4e7)
C         1.14992875028189    0.06665011523892    0.56039974979412
C         2.63084631598551   -0.01216255615528    0.26040014582334
C         3.30719191088671   -1.22540205324236   -0.01297004084054
C         2.77107757539157   -2.64592311113269    0.05729356750911
O         2.99017990507920   -3.46750952929837   -1.08904981026340
C         4.66863800717148   -1.23134092474539   -0.41148029129477
C         5.43839039542646   -0.06022242767356   -0.38843015589729
O         6.74397759913871   -0.09932411316830   -0.81543421650241
C         7.65559757390936   -0.99678017627013   -0.19092211189501
C         7.93572255236759   -0.59026203832438    1.23826473150838
O         8.64878074123214   -1.29535703088427    1.94918336378038
C         4.79813262293454    1.15056797522044   -0.11343463102554
C         5.39051390671551    2.46261739840372   -0.20348976981989
C         5.83589109168956    3.55550124394782   -0.38574175132385
C         3.43338355533677    1.15527832065243    0.22541018556695
O         2.93487717629882    2.40590032027326    0.52055262879831
H         0.90526998807537   -0.45818545468767    1.48355895682387
H         0.49821941475895   -0.24461371314257   -0.26785832094122
H         0.99773161604846    1.12270922386490    0.81237598955988
H         1.71933134417754   -2.62299558502707    0.31577498494604
H         3.33046871344206   -3.14176436474364    0.86188423140846
H         2.61369014916459   -2.98748917443125   -1.84629903662959
H         5.11391522861711   -2.16832209217587   -0.72313687137678
H         8.47887337370707   -0.85356958270374   -0.89422181404478
H         7.31344458893806   -2.03748668147296   -0.18547350692438
H         7.24101203408271    0.14424156270854    1.67969646172687
H         6.34175307207481    4.49639836928892   -0.40052443556298
H         3.69274042131468    3.00453902285711    0.41150827093697
