28
 energy: -47.949071653627 gnorm: 0.127344878550 xtb: 6.4.1 (79825abcba525fcdf90b791dcacef51065a7a4e7)
C         1.07308379423593    0.03008578019843   -0.31581521727041
C         2.56026147725034    0.01384641151353   -0.03766621687839
C         3.28480436464116   -1.19091460032232   -0.20413908120261
C         2.49845530386903   -2.46660850147663   -0.45809942551684
O         2.95182189323901   -3.48586149864930    0.43223493818123
C         4.70322571667349   -1.20699904713473   -0.18988029992599
C         5.33822056969136    0.00982078005737    0.09419647820044
O         6.70320193843948    0.02572495572895    0.25228593231599
C         7.48539697312100   -1.16091199650163    0.17130816378800
C         8.93315140458629   -0.76175050252794    0.34731736789755
O         9.77725988275174   -1.57345203159017    0.72099869630886
C         4.67454789740705    1.23904641405933    0.08376215476419
C         5.30737177034897    2.50965863017490    0.33984367090167
C         5.39427378268496    3.63200581783652    0.73828633756005
C         3.27682045121448    1.23601193383275   -0.07027284968802
O         2.64024048011285    2.43774065822005   -0.29452062527846
H         0.57539128561592   -0.43395709180284    0.53536019925098
H         0.78071020462004   -0.46759377268542   -1.25093788823495
H         0.80046000091185    1.09122934139038   -0.35540616584776
H         2.50689067834272   -2.83847253518240   -1.47552481938811
H         1.42988323428713   -2.32821789599045   -0.24562613456781
H         2.72459274499156   -3.27400233383229    1.35368655186703
H         5.20895093873208   -2.14344500631424   -0.39148955736081
H         7.30572848989826   -1.74775584925388   -0.73216087910970
H         7.27175649624945   -1.86663969333794    0.98153933185851
H         9.18334691381096    0.30775351723142    0.24463545683364
H         5.63324058233416    4.67312907288892    0.71932550622654
H         3.26518142725070    3.07465141214902    0.09071848406412
