28
 energy: -47.949404420712 gnorm: 0.125512350679 xtb: 6.4.1 (79825abcba525fcdf90b791dcacef51065a7a4e7)
C         1.35913435444865    0.16327953782891   -1.18260923297014
C         2.71537727197378   -0.02591566033433   -0.53907340126206
C         3.19932203803365   -1.23125068806174    0.02403372946416
C         2.33866434583954   -2.47581751761839   -0.11934472119094
O         2.88715273536335   -3.67410706220421    0.42872084698059
C         4.50417388008749   -1.38426661114218    0.55913088024548
C         5.24879380207973   -0.20828900900853    0.72401399530377
O         6.49297775853317   -0.14511223685605    1.30404360596222
C         7.44000149765683   -1.02824410075525    0.71267410472847
C         8.26828548559920   -0.20963985385921   -0.25176083783775
O         9.15570163331703   -0.70641853628262   -0.94220978824266
C         4.71759201938308    1.03845353620121    0.38486259704985
C         5.40796569752238    2.19376970774400    0.90363803233821
C         5.97418819489560    3.23560805361615    1.04483535259287
C         3.49155573302940    1.13475520271596   -0.29700177779694
O         3.10250565384871    2.35286686528755   -0.81131400382629
H         0.50494513222228    0.31952329159494   -0.52421583480394
H         1.15577745607732   -0.75506801061679   -1.75085690641355
H         1.32190335088684    0.94531034942797   -1.95004554231409
H         2.06701085965477   -2.65297838160916   -1.15294370666247
H         1.46747797021426   -2.18349221400782    0.48208968822015
H         3.26678444980656   -3.52839569121127    1.31203190502957
H         4.96081089810415   -2.34421117985945    0.76727600899833
H         6.98064017135963   -1.85549598770454    0.16717958248677
H         8.10150869778460   -1.53969001587896    1.42048741613148
H         8.11516827043852    0.88283916865236   -0.24676874425338
H         6.41733983939848    3.99621797564163    1.65022072611734
H         3.65676099687140    3.11424796460983   -0.57107350620141
