28
 energy: -47.958913730708 gnorm: 0.115177612636 xtb: 6.4.1 (79825abcba525fcdf90b791dcacef51065a7a4e7)
C         1.22524687828109   -0.12467070591081    0.31742636940804
C         2.72368953998885    0.01674213186180    0.16250692684676
C         3.57763617256468   -1.11233322965833    0.15309011393219
C         2.95592042602832   -2.49112031422356    0.30359372315082
O         3.60999783208761   -3.60423631266869   -0.30490338427715
C         4.98282850372365   -1.02192687025334   -0.01907945639437
C         5.52452339099856    0.27019285925685   -0.05859945768692
O         6.87969328423723    0.49808264230002   -0.05901213439401
C         7.73758622668437   -0.63592622031703   -0.12637185798001
C         7.50380279511319   -1.49846386378131    1.09333144828891
O         8.06653847495518   -2.58543982496419    1.20659241116206
C         4.71940298401691    1.40926547049773   -0.13515451372360
C         5.23632165082860    2.69632685469501   -0.53109300323195
C         5.47893940419593    3.85114702459437   -0.71411957398435
C         3.32539970171934    1.29019961838553    0.00611183167259
O         2.58603131059128    2.45323152427770    0.02519638964959
H         0.95081620487249   -0.88441427513679    1.04887063957577
H         0.73605826356918   -0.21863234746235   -0.66210789348019
H         0.85243551675716    0.78399948810943    0.80450644216382
H         1.90326796648159   -2.43833228016449    0.05330454569006
H         3.08160294205008   -2.75806353438698    1.36146344753807
H         3.68550290228471   -3.62724418045464   -1.27410929032482
H         5.58366672045694   -1.92276829258767   -0.04760136987604
H         8.76186985156099   -0.26436645729481   -0.05081270965054
H         7.60806122953588   -1.21263091713672   -1.04876187857440
H         6.90908694324928   -1.07879443619605    1.92228913347413
H         5.87208181009586    4.72399359583279   -1.18844033770782
H         3.07630576752379    3.21341222307406   -0.33029189881681
