28
 energy: -47.953935460453 gnorm: 0.116216164833 xtb: 6.4.1 (79825abcba525fcdf90b791dcacef51065a7a4e7)
C         1.44587849319391    0.13097367634918   -1.12721055699886
C         2.73207211785793   -0.00940261418951   -0.34278179052375
C         3.28424299059417   -1.21237748506256    0.15929736530786
C         2.52740629131253   -2.52379577226076    0.02657239798681
O         2.60743613149091   -3.02120901871838   -1.30882585848681
C         4.57721401379370   -1.32637197913116    0.73167166818193
C         5.27821473560884   -0.11966208099133    0.86212389332704
O         6.44283587543444   -0.09750276816072    1.59122328384854
C         7.43075258780283   -1.06455225052151    1.25162116551433
C         8.16094769061228   -0.68351488952021   -0.01641971463152
O         9.04279991455376   -1.32573628993272   -0.58290409932780
C         4.76603344899419    1.10839449052502    0.43654977858056
C         5.54863367927160    2.31959044619730    0.40429421183312
C         5.94115849590167    3.43806901078323    0.54886835376006
C         3.46502544979123    1.17735659693785   -0.09260086109597
O         2.87976878984111    2.38502379893606   -0.40674670583891
H         0.65531031998247    0.46705977518500   -0.45670231206539
H         1.11867477491815   -0.85642922382538   -1.48160426877931
H         1.60198230333415    0.81930527219156   -1.96610747742977
H         1.47960520138182   -2.33980131762946    0.23094305878747
H         2.94756655280495   -3.27325142101026    0.71062262496911
H         3.45677124467082   -3.48908563099829   -1.38170802150732
H         4.95380547150852   -2.18643236677934    1.27186638592483
H         7.10944313108264   -2.07932133717672    1.00682182443380
H         8.11860001724699   -0.97074447701703    2.09910827424199
H         7.86878900294624    0.27913819491373   -0.46910344130229
H         6.28064763881860    4.45028631036335    0.58843508712333
H         3.60792275794104    3.02783333207341   -0.44143629284947
