28
 energy: -47.955186962438 gnorm: 0.117660471221 xtb: 6.4.1 (79825abcba525fcdf90b791dcacef51065a7a4e7)
C         1.08048714608299   -0.08497263156020   -0.31161974032055
C         2.57920407621742   -0.11924696433223   -0.10667856812412
C         3.34751226850389   -1.29822166167291   -0.26109975190341
C         2.76278102350658   -2.66562728313924   -0.57498967169000
O         1.68702930429634   -2.96150974864571    0.31513673795535
C         4.75233644921117   -1.25094933209363   -0.06974791461221
C         5.33833262485293    0.01346484257050    0.08003149886192
O         6.70610930272389    0.14408408230480    0.05668729657368
C         7.50879011903182   -1.00441809880367    0.30796400729964
C         8.92887309713742   -0.48627995523919    0.27333400709247
O         9.88116815213917   -1.24103374699711    0.45906788705106
C         4.63151007985742    1.20650823728870    0.24919215748314
C         5.36085326041974    2.44978249959815    0.30236014014999
C         6.03253538022134    3.43390284832770    0.38187108130501
C         3.23065892027103    1.10650762806014    0.17852451282980
O         2.40090700200678    2.19659912847326    0.32980350739858
H         0.67204779767048   -0.95142930281832    0.20796023122743
H         0.75673788643047   -0.11457240190835   -1.36134919845135
H         0.76208102181798    0.90182505577336    0.04442056557923
H         3.60045731492214   -3.35249103115101   -0.56998197653137
H         2.47150929462946   -2.78473517586554   -1.62718604985997
H         2.07048602482177   -3.36630469224634    1.11181262312981
H         5.36660558224126   -2.13298552635498   -0.20398995369628
H         7.46294153035615   -1.79885926192942   -0.44015625811343
H         7.29206296212079   -1.38158086378708    1.31342209822431
H         9.08877292605702    0.59634568496851    0.13428730457765
H         6.63111520705973    4.31791940563093    0.34163194750249
H         3.02481739502734    2.92779324735007    0.47370156006299
