28
 energy: -47.955253008123 gnorm: 0.117525182528 xtb: 6.4.1 (79825abcba525fcdf90b791dcacef51065a7a4e7)
C         1.23990047405190   -0.03394779583725   -0.86313205210867
C         2.68110025725074   -0.04404763200932   -0.40251375391744
C         3.42617598689191   -1.23635881010330   -0.23704195339415
C         2.77988347074923   -2.53204548890545   -0.69935964395241
O         2.25521402619178   -2.38701085680391   -2.01875349970635
C         4.72395624061057   -1.23406637466544    0.33579511824211
C         5.28682087582389   -0.02754664545140    0.77404404285811
O         6.52657553091733    0.03337791612549    1.36371848209855
C         7.41922678729471   -1.06284148720599    1.53096224893658
C         8.44852469884957   -1.03703015812443    0.42363139732004
O         9.45242456418053   -1.74337445348752    0.48904566785302
C         4.64811833703957    1.18155922253932    0.48823288061209
C         5.29285214000281    2.46562055497566    0.61473984802708
C         5.81028088689002    3.48597291072196    0.95696825180825
C         3.35377436008489    1.15549792827747   -0.06074113953026
O         2.72047999629961    2.32803543657538   -0.41254661562658
H         0.75229953072781    0.88001818913126   -0.52483528023242
H         0.78284993366126   -0.88340724932252   -0.33668631942531
H         1.24515012578855   -0.24285220682354   -1.93935146302185
H         2.00184227042107   -2.84655828595127   -0.01434720501787
H         3.50631387324488   -3.35356622983332   -0.75890517415020
H         2.96961074574934   -2.09209354081391   -2.60888193679016
H         5.32403141533992   -2.11520549224240    0.52772993212539
H         6.99158501670067   -2.06176314028783    1.64141960659706
H         7.91798572334195   -0.93586557236128    2.49806359951160
H         8.17121665485467   -0.52596811158354   -0.51386316208275
H         6.43253076279669    4.29199737012263    1.28028223583823
H         3.31730853102218    3.03429125801121   -0.11319050531038
