28
 energy: -47.947712110558 gnorm: 0.118480412003 xtb: 6.4.1 (79825abcba525fcdf90b791dcacef51065a7a4e7)
C         1.50938071012979   -0.00052557604879   -1.05767602139021
C         2.76339531437457   -0.04180148422991   -0.21205689495449
C         3.50454291849981   -1.20767818997271    0.09706514113048
C         3.08869982258611   -2.64330900276537   -0.17911291229101
O         3.22206433918800   -2.93250151243782   -1.57040540936720
C         4.79927355887840   -1.08792001860234    0.66426149618242
C         5.39233904018076    0.14999789670371    0.94781245645655
O         6.70323025780592    0.32112630012206    1.32291063634530
C         7.46390567038990   -0.88211224213540    1.31376390397489
C         7.55280668611928   -1.30549417232541   -0.13507921601546
O         7.80799970256248   -2.44085962630168   -0.53110704540854
C         4.68963948286913    1.32033680855833    0.65101939765282
C         5.24733947480443    2.65028383263917    0.67768065055803
C         5.70404684598074    3.75211501180990    0.61973115473773
C         3.42430852879247    1.18340014625595    0.05305290218469
O         2.76377192395674    2.34448193621435   -0.28643719603889
H         1.16954672302082    1.03408095135512   -1.09811613937531
H         0.74347193763197   -0.65516080330996   -0.61897551402529
H         1.73158060246716   -0.42795492625683   -2.04248472837670
H         2.13974606676473   -2.85221479813844    0.29979583374126
H         3.76737076271443   -3.26539815740486    0.41968084920581
H         3.93954757464051   -2.41577025060366   -1.97512392584645
H         5.30485800235140   -1.93906111398609    1.10389605313906
H         7.00468725040672   -1.70798799437851    1.86145950410562
H         8.40705748656496   -0.68164395415015    1.83380765288194
H         7.57912223777872   -0.45148133401640   -0.83289708703813
H         5.99567184257142    4.75817962699063    0.82994799470774
H         3.37323897173293    3.08667880399897   -0.43580047665512
