28
 energy: -47.953711450683 gnorm: 0.116574650168 xtb: 6.4.1 (79825abcba525fcdf90b791dcacef51065a7a4e7)
C         1.27948383899194   -0.06098645856614   -0.87844323338359
C         2.69799233500155   -0.01257861477141   -0.35421202924739
C         3.57273134310814   -1.12539727997746   -0.37852228215757
C         3.09638871808938   -2.37737467322103   -1.09677428344404
O         4.08811108292538   -3.33447243899068   -1.46767026310771
C         4.89301391394074   -0.98481440463462    0.12094897552875
C         5.41872360801623    0.20141963997233    0.65108734016089
O         6.72506235350832    0.40270786797790    1.02709464237683
C         7.50312705419530   -0.78797443501998    0.96891636839691
C         7.80818534039668   -1.21636982337758   -0.44872916826309
O         8.37966909975973   -2.25911018347493   -0.76036210159727
C         4.54513188196263    1.28328212116046    0.78516578979744
C         4.86446501115476    2.45797989940007    1.55886513250652
C         5.21540265180211    3.45896301687008    2.10736060723851
C         3.24611214446010    1.13719269725607    0.26691526708236
O         2.45855981330587    2.26400805854458    0.36551308099826
H         0.62863866419616   -0.37871999185770   -0.06420790667367
H         1.09475597114317   -0.54494601034457   -1.84760804160166
H         0.90154101486276    0.95485524439802   -1.04319056737939
H         2.58227988258350   -2.07060321310481   -1.99959864489651
H         2.42722529438127   -2.82158465575602   -0.34774762504661
H         4.98703562108108   -2.97450073497521   -1.37853264935150
H         5.56111078086131   -1.83407282581439    0.19672526634581
H         7.10179309445954   -1.57444932655761    1.61180911485906
H         8.42907514105292   -0.44823605567505    1.44574585540878
H         7.36184474590731   -0.50069221070295   -1.15976070450337
H         5.54525873878947    4.40722273117043    2.47260127224152
H         2.91760945030256    2.88603869781634    0.95455211233196
