28
 energy: -47.949901530970 gnorm: 0.119048731653 xtb: 6.4.1 (79825abcba525fcdf90b791dcacef51065a7a4e7)
C         1.26572127523804    0.07998443722650    0.64484869753075
C         2.74367031486470   -0.02475131063309    0.33821358702496
C         3.56038964484504   -1.17087820210722    0.18495765832439
C         2.80467318062850   -2.48963709556101    0.18316097276985
O         3.36486363596976   -3.49421868660107   -0.66189268977941
C         4.96592475272715   -1.09722052670567    0.00768174910790
C         5.56466534376704    0.12335006184950   -0.33332515297183
O         6.88943165198643    0.28553912171022   -0.66059916916552
C         7.70298987237306   -0.82114785823559   -0.28661964983086
C         7.71255267998100   -0.95618325080142    1.21936043918496
O         7.83765575408452   -2.00967778729901    1.84025875045036
C         4.76021069392400    1.25956086032279   -0.21737825469241
C         5.28131330337902    2.55857369407531   -0.56597104676856
C         5.78219863977178    3.42375870377650   -1.21907173572682
C         3.44041144881636    1.20708063508320    0.26506736030015
O         2.67162228347333    2.33414482087767    0.46093105823304
H         0.74417492867716   -0.85485933214651    0.84878431756649
H         0.69987160384929    0.56572022778508   -0.16230466624955
H         1.22742499404389    0.66301404739721    1.57249448170646
H         1.76263544715420   -2.41656955735281   -0.10376574714048
H         2.73543069942461   -2.93073124362592    1.18654751599619
H         3.24449510460714   -3.27402063908258   -1.60136844993955
H         5.45743037595394   -2.05983570742713    0.07930271371094
H         8.71257664452925   -0.70379603887850   -0.68647698011060
H         7.40746429609809   -1.81317655790070   -0.64538429863239
H         7.35647337140249   -0.03853419998984    1.71746480790080
H         6.19201100442201    4.37812774184122   -1.46934327535008
H         3.21359845406323    3.05659741402101    0.10184924682933
