28
 energy: -47.949541746124 gnorm: 0.122036196099 xtb: 6.4.1 (79825abcba525fcdf90b791dcacef51065a7a4e7)
C         1.01751158661239    0.22721737559542   -0.41017388676759
C         2.44921707618019    0.02844739356295    0.03708210863704
C         3.05275186142445   -1.25096633548396    0.09158871115963
C         2.26059105529144   -2.52446962027206   -0.15520322919426
O         3.05454192218359   -3.67100530643697   -0.45886612101797
C         4.46286708942539   -1.30036943105959    0.23827043607710
C         5.27836773423394   -0.16172842395445    0.18328016002335
O         6.62778306125878   -0.03810543342110   -0.04522584006937
C         7.47728487966175   -1.07337619267249    0.43753170620999
C         8.87925752232255   -0.55080950713351    0.21913114708033
O         9.86513556723577   -0.85103368898317    0.88915066366784
C         4.63716921870777    1.07579697870455    0.27794440628614
C         5.46889605765830    2.24618998071114    0.41545772589799
C         5.83407705442802    3.37474938852310    0.27773247995894
C         3.23747239914129    1.19315462001638    0.21120603360329
O         2.72229270901932    2.45803377839368    0.02588562472209
H         0.47722040072358   -0.52957300320368    0.15805755357563
H         0.91538735537888    0.09890227102981   -1.49678676090983
H         0.57408118995111    1.17468895042529   -0.08217399909101
H         1.51294228507004   -2.36496795973715   -0.92272455397800
H         1.72707680054286   -2.77832408653211    0.77057405318323
H         3.59157711312186   -3.46022267322879   -1.24165239645219
H         4.92859843544732   -2.27652690184042    0.17872012403734
H         7.41143914948813   -1.97461090126289   -0.17595270706684
H         7.45189335473532   -1.36373863860405    1.49356830660092
H         8.89075430092042   -0.03485135074247   -0.75587409514674
H         6.37768230853587    4.29402973791396    0.30635499980990
H         3.46231590285493    3.08697171242789    0.06354743687605
