28
 energy: -47.954319734107 gnorm: 0.115832112034 xtb: 6.4.1 (79825abcba525fcdf90b791dcacef51065a7a4e7)
C         1.34478496851448    0.31577336650446   -0.94184503717320
C         2.76732382850266    0.11747997586941   -0.46603944884194
C         3.51911740683642   -1.08128260421029   -0.42245748061156
C         2.88169198250308   -2.33040866493005   -1.00863880195109
O         3.65972855985848   -3.47077223905214   -0.64622575183232
C         4.89034850473470   -1.08472453738028   -0.05900930198966
C         5.42278931043233    0.08690901429839    0.49628357252177
O         6.74730524202499    0.34057361643364    0.76035018412959
C         7.57834387537111   -0.76537503867291    1.09612703447179
C         7.93711245556277   -1.43818212358019   -0.20959796194809
O         8.40980213363808   -2.55404566855616   -0.41558157261068
C         4.65708950761887    1.23633853113257    0.70623963236485
C         5.04507274132592    2.43175172741633    1.41402172080173
C         5.05590985983266    3.41290447499363    2.09460496744223
C         3.38531447313599    1.25693409544587    0.10662135197411
O         2.65032212059483    2.42044494787132    0.03111115297479
H         0.90295961148869   -0.61675796815192   -1.29214329665190
H         1.36855596115132    1.02433814271312   -1.78148338946431
H         0.71785477416759    0.75356064559517   -0.15621302582296
H         2.87678853251807   -2.27612581107285   -2.09055274422779
H         1.84497007803579   -2.56776733205685   -0.73475620120740
H         4.45235355534819   -3.40784825931039   -1.20602630386191
H         5.51299567321738   -1.96998250506141   -0.01469043261482
H         7.01863117975219   -1.45556249233599    1.73117487709889
H         8.47705248865081   -0.30724095926237    1.52344936861466
H         7.89031428609108   -0.72943899002305   -1.05367930799319
H         5.03989682434510    4.31217134083420    2.67120270602120
H         3.13939831257205    3.13382076971856    0.47441136563651
