28
 energy: -47.956149891722 gnorm: 0.111765563553 xtb: 6.4.1 (79825abcba525fcdf90b791dcacef51065a7a4e7)
C         1.26770989855700   -0.14435037313524   -0.69042818638281
C         2.73577682085770   -0.00171733390946   -0.35313993485026
C         3.52094803923292   -1.17773048144464   -0.28514037523960
C         2.86772295496897   -2.38087084040398   -0.94543265636948
O         3.65711665057362   -3.56440562296343   -1.06039448782721
C         4.82994499112926   -1.18017679503787    0.26157906363318
C         5.35030843405470   -0.00058117787138    0.81143779855156
O         6.52296044965716    0.15867670203551    1.50996734437089
C         7.59794621279838   -0.70474649941952    1.15584912416216
C         7.77624085838106   -0.86922201830431   -0.33661891698488
O         8.61050089890552   -1.60839569379649   -0.85493223156296
C         4.60988956341756    1.17847299887163    0.69664631202788
C         5.09037624672184    2.46712045351936    1.13141001117750
C         5.54307679035329    3.48438995376958    1.56291516222056
C         3.35694299191825    1.20355577379648    0.05877976174163
O         2.70643372749926    2.39478176416555   -0.18099383949788
H         1.05462100359920   -0.50832268097971   -1.69524184407203
H         0.80321828284219    0.84966943508050   -0.62883415401987
H         0.86383623556796   -0.89185137683985    0.00242471729898
H         2.52673075507540   -2.01419363667651   -1.90604735550375
H         2.03175772433407   -2.70213551885476   -0.30974856131212
H         4.34307793067323   -3.45346236747704   -1.74064384177605
H         5.26568807013912   -2.16488190458184    0.37913391980608
H         7.45366715086545   -1.72572660099318    1.51599627325823
H         8.43586649336606   -0.18162854585091    1.62956379956732
H         6.96857722018395   -0.43035122270068   -0.94657964368182
H         6.11725401498589    4.35381936242288    1.79916775069377
H         3.07194512501014    3.03718739383098    0.45014171632202
