28
 energy: -47.955019786546 gnorm: 0.109492515341 xtb: 6.4.1 (79825abcba525fcdf90b791dcacef51065a7a4e7)
C         1.41559738287497   -0.00568770996832   -0.97350910875510
C         2.81781921446797   -0.02538608378397   -0.40542993829346
C         3.55927812294252   -1.21364392456884   -0.19950110494108
C         2.97127210964291   -2.61483581561525   -0.16565083729575
O         2.76014497880165   -3.24736805919404   -1.42757060806784
C         4.82544829316831   -1.06967675756208    0.42377067687000
C         5.37017370451491    0.17374911492756    0.77267596507081
O         6.54932362955041    0.31008153694378    1.46509078632232
C         7.53652076230956   -0.70127658608269    1.29453200439315
C         7.84782207176069   -1.19079876619337   -0.10180662162082
O         8.14136947166058   -2.34827679879202   -0.39350982219610
C         4.65676153272112    1.34453098915800    0.50457368674127
C         5.33351716943144    2.59367712126659    0.75384248169866
C         5.73169289270560    3.65735778972033    1.12263950225014
C         3.40607236013791    1.23378987086245   -0.12858583779019
O         2.80859387785797    2.39638333385712   -0.56570017899340
H         1.39099686862502    0.86244221405921   -1.63174801768520
H         0.69648199410459    0.15333103595152   -0.15790641074497
H         1.26120572686013   -0.94527699060941   -1.51688009624622
H         1.98774727505137   -2.56991280457343    0.28620010443814
H         3.66622353564220   -3.23041392045753    0.42107673234766
H         3.63613259022417   -3.22486867350724   -1.84915091000171
H         5.29408616891587   -2.00343073727620    0.70980805071532
H         7.34470067609052   -1.54869407178677    1.95635633417549
H         8.39752921291473   -0.24481387296689    1.79500640238910
H         7.77883650037463   -0.48002128178101   -0.94264939734674
H         6.42016580656056    4.39507479613769    1.47361091821628
H         3.23451024543303    3.16022256094621   -0.14171840411341
