28
 energy: -47.950996005052 gnorm: 0.113551610859 xtb: 6.4.1 (79825abcba525fcdf90b791dcacef51065a7a4e7)
C         0.91493978127236    0.13886827865134   -0.03931466663285
C         2.41577646994777    0.03165789794080   -0.19844735117811
C         3.14198154432786   -1.15392450773129   -0.46517802969976
C         2.43235683311814   -2.45639177352687   -0.79721330213209
O         2.91747430518389   -3.58603232161813   -0.07217090106137
C         4.55524074186042   -1.18046138875747   -0.34528059090440
C         5.27190665828746   -0.05044721175480    0.07188425205175
O         6.59567275314991   -0.03051426735760    0.44021204914049
C         7.53903318820273   -1.08776801345712    0.30317434611509
C         8.91946246944787   -0.47714818402521    0.21451513562898
O         9.88107624499155   -1.18816815413656   -0.06967807230238
C         4.59400937207914    1.16002540240578    0.23552195243322
C         5.42704192880597    2.22717513106167    0.73326427898330
C         5.90905198693629    3.29382727811470    0.96967753604850
C         3.19515282313359    1.17868486236798    0.09328911596440
O         2.48952250377294    2.32109848491031    0.40417498229003
H         0.70120257527720    1.07886896222694   -0.54749606775217
H         0.69860171816626    0.14872714569745    1.03805356744437
H         0.36191248673284   -0.65341013276839   -0.55736153590074
H         2.58438009067790   -2.62045958603166   -1.85715628812091
H         1.34958341454579   -2.32709532646798   -0.66672467725615
H         3.77594495028847   -3.52155387755669    0.38000290212105
H         5.09697186883003   -2.09754538083170   -0.54230768182835
H         7.47391131357444   -1.63666558302923   -0.63884124968102
H         7.48426477511934   -1.77310286602063    1.15610162413751
H         9.05877788105864    0.59081662717692    0.45330917682983
H         6.44040537761613    4.15458735132212    1.31341863744215
H         3.05681459260420    3.03287760962120    0.74500606357657
