28
 energy: -47.955911034425 gnorm: 0.113408204146 xtb: 6.4.1 (79825abcba525fcdf90b791dcacef51065a7a4e7)
C         1.11228709223188    0.09046929900730    0.54878405156514
C         2.57204372047434    0.06554310616261    0.15152178286699
C         3.37736008546393   -1.09147060913977    0.02148520129544
C         2.86298632005358   -2.50962491316256    0.20720980338667
O         3.70233865594098   -3.51869843384336   -0.35347861184042
C         4.77789111516040   -1.03586164056082   -0.19715065436671
C         5.43656636755499    0.20032263906044   -0.24778583069060
O         6.79304109706752    0.36265512932181   -0.39625746514062
C         7.61635186698261   -0.79588000144671   -0.31594895525701
C         7.87428531284632   -1.29947695020050    1.08625020375247
O         8.31126646283638   -2.42374174417221    1.32308849768455
C         4.60633289936810    1.31916003932990   -0.14540794840456
C         5.23129657882083    2.60782724286690   -0.31645317698241
C         6.03692605787211    3.48698407600998   -0.25308007062752
C         3.20899058716926    1.32373765222813    0.01204527288285
O         2.51408796776458    2.50502296532691    0.15815621868324
H         1.02840694024251   -0.36751680251743    1.53404851393719
H         0.44911054141432   -0.42037297617906   -0.16315603992140
H         0.79317940102065    1.13915067904489    0.52995652163437
H         1.87795152500602   -2.62745539432587   -0.22791188097967
H         2.78952556867351   -2.75087521262820    1.27610874021788
H         3.87178784301845   -3.21980319437463   -1.26317036036104
H         5.22738774565205   -2.00744005890487   -0.36244884653290
H         8.52156885051038   -0.43288675760514   -0.80762049548500
H         7.24241279362955   -1.65542989277602   -0.88296917975312
H         7.56932840036197   -0.62009307730496    1.90014150519515
H         6.69229345966601    4.21080170209234   -0.68665117307563
H         3.07862157467912    3.27758499181568   -0.01232951170414
