28
 energy: -47.950884436259 gnorm: 0.118698616760 xtb: 6.4.1 (79825abcba525fcdf90b791dcacef51065a7a4e7)
C         1.25928895631098   -0.09192466161379   -0.69206738990555
C         2.72353148636491    0.00092181791482   -0.32233588999691
C         3.44315335872804   -1.21598513550455   -0.24880675932731
C         2.89861941840993   -2.54623107879424   -0.74293644266426
O         2.67712509238661   -2.67967741842299   -2.14659079793584
C         4.75927108353291   -1.15436042027696    0.27694763902983
C         5.32679603151954   -0.01714045750329    0.86789160536697
O         6.46817407358174   -0.13840453780092    1.62351752583440
C         7.47184461903020   -1.13650740011442    1.47209153217026
C         8.33601975076792   -0.85728450158863    0.26315069721899
O         9.06159257959699   -1.72319009605740   -0.22137773419791
C         4.65529232564709    1.18487399889767    0.63165025490960
C         5.23537530676612    2.45437485479658    0.99547786781609
C         5.61312660621438    3.56951074942092    0.79610978969554
C         3.37106609244439    1.20234956485675    0.05908096854863
O         2.71113104786891    2.38557104319264   -0.19418908413142
H         0.67922668412769   -0.31683658914942    0.20262562664066
H         1.10506795114293   -0.88608334208776   -1.43580762405278
H         0.78432087469678    0.77832478960126   -1.16002896799943
H         1.93223725043374   -2.70772552863145   -0.28083959292530
H         3.51766106355696   -3.41135216854883   -0.46999676894833
H         3.39390145061207   -2.32498590190059   -2.69977796998345
H         5.22775311117818   -2.11242641907733    0.46660383476711
H         7.17593014712293   -2.18766446600352    1.45144625790192
H         8.12333876641527   -0.96529983647894    2.33604276225012
H         8.43925926052829    0.18344179245507   -0.08786297664201
H         5.94423108314371    4.58227681953861    0.71815472392039
H         3.28821146462102    3.12788624490921    0.05190438850705
