28
 energy: -47.952057718344 gnorm: 0.114476495349 xtb: 6.4.1 (79825abcba525fcdf90b791dcacef51065a7a4e7)
C         1.23948792724715   -0.09845627343606    0.48583098079643
C         2.71582411968886   -0.05829285391217    0.15697451437666
C         3.42918163825954   -1.19130162925124   -0.30295712426136
C         2.85465435115583   -2.59826029832753   -0.32788693342906
O         3.12915227378024   -3.18058066717800    0.94595259087527
C         4.78744970840214   -1.04196852402293   -0.68399365457031
C         5.47656774467494    0.17623732813376   -0.60876299262877
O         6.83133928357948    0.31684525720452   -0.79108967711828
C         7.67583036984901   -0.78435690065979   -0.47378478272106
C         7.51395386647483   -1.17454213480359    0.97806008956529
O         8.26024119519896   -2.03479000551470    1.44071013055011
C         4.72124684394865    1.32640014406580   -0.36755329072696
C         5.40873765056084    2.59233235737132   -0.29494786874266
C         6.02045073906493    3.61340392508309   -0.19907350015380
C         3.41368877038048    1.17471159591756    0.12707871952366
O         2.70606373756616    2.28083725405552    0.54591767283784
H         0.98123415883953   -0.76192771292995    1.31084242577935
H         0.63017650647620   -0.45949853782522   -0.35441289746964
H         0.83149910915829    0.87930033663392    0.76770684186671
H         3.49449249448016   -3.22431033422732   -0.93795003281843
H         1.82509350964701   -2.81518031411245   -0.64267789306372
H         3.20521425164508   -2.45412424752515    1.58787635451016
H         5.27298795369749   -1.97184829475717   -0.95401524322106
H         8.69810355720548   -0.41896688151092   -0.59366164317593
H         7.60261953529390   -1.63231798105088   -1.16354602879938
H         6.75137677095210   -0.65749796992750    1.58479044739360
H         6.47830471467219    4.45384569313310    0.27572091182351
H         3.31343764573545    3.03857507241067    0.50659822910515
