28
 energy: -47.951530872187 gnorm: 0.118330799238 xtb: 6.4.1 (79825abcba525fcdf90b791dcacef51065a7a4e7)
C         1.39240777269083   -0.00443404861627   -0.87967226631064
C         2.83614674929380   -0.01817470038034   -0.42717145614831
C         3.68476458626690   -1.13704418970795   -0.24799691217447
C         3.35959041419150   -2.57192990622206   -0.62957306393486
O         2.61850485702218   -2.77204331257385   -1.83284361951187
C         4.95862400111888   -1.03934979737177    0.36854112001904
C         5.54909024375418    0.18638049563353    0.70544382598857
O         6.70947093942507    0.33349045512487    1.42675835050581
C         7.42783249737746   -0.89159897108774    1.52477009841991
C         7.85761994896704   -1.48684587460216    0.20292823874876
O         8.29874639499938   -2.61204382335792   -0.02146709224777
C         4.74300738106871    1.29127996965380    0.42085023704117
C         5.21979059671513    2.64254270344011    0.58597438070927
C         5.71805817946002    3.72745736198443    0.61169043768338
C         3.39388601214501    1.19983212950194    0.03499170217887
O         2.54725715202794    2.28375626928618    0.12444043322242
H         0.85291071962814   -0.92108533039862   -0.64255086285285
H         1.40361277468709    0.02611848209627   -1.97810872494908
H         0.81559861410628    0.85903375602479   -0.52805973977653
H         2.79756362203430   -2.97519242915061    0.20410173636105
H         4.29884470333073   -3.14015479511543   -0.66220713322013
H         1.87242192221981   -2.16236795916270   -1.96417025157092
H         5.37659281407585   -2.01134967784945    0.60060498082797
H         6.95263448819931   -1.56782847849752    2.23878920877333
H         8.34944524032010   -0.49069298310229    1.96074340723390
H         7.72261285392534   -0.72603437202373   -0.58442121249421
H         5.93469849689556    4.77117501172290    0.68326354025757
H         3.06515463979442    3.02449053814946    0.48180662925213
