28
 energy: -47.948322611646 gnorm: 0.116021431296 xtb: 6.4.1 (79825abcba525fcdf90b791dcacef51065a7a4e7)
C         1.06102216683908    0.13937318807764   -0.10008588519913
C         2.56368538168029    0.10035246211649    0.07256603678787
C         3.23474438260377   -1.14589550587367    0.09846044000532
C         2.56563704341985   -2.50139674267900    0.25703974997481
O         3.54441333086135   -3.53995829750597    0.27940249823666
C         4.65201529979233   -1.16501805038344    0.04050668127242
C         5.31479012714981    0.06913568598033   -0.00599772931230
O         6.67324723239809    0.23565830180737   -0.12962571648022
C         7.56922731900811   -0.80761125427794   -0.49745998365161
C         8.44956363301489   -1.06246979306491    0.70518590459476
O         8.74295765732246   -2.14735554300713    1.20314080865664
C         4.68527987990723    1.31549672968424   -0.04920604715864
C         5.40837556365210    2.56334098005827   -0.07193373843948
C         6.09632048732512    3.52494303973737   -0.23934036355936
C         3.27944652981095    1.32008102271498   -0.01774860331861
O         2.51454060996654    2.46474562479131    0.04809158049579
H         0.45541860232307    0.54515320663367    0.70992652428200
H         0.60851384194385   -0.84307493022881   -0.29413117207996
H         0.83966272443062    0.74072185201881   -0.98963442900255
H         1.78692078976469   -2.65105427263169   -0.48100636587756
H         2.08277393029325   -2.57044146509420    1.24102103473792
H         3.22853505280783   -4.36431331817043   -0.12833538476622
H         5.22901242403736   -2.07344207849192    0.16369530251064
H         8.13090981666358   -0.32637904116547   -1.30110861072858
H         7.05259146483723   -1.69157255266386   -0.88716268900761
H         8.81724978195351   -0.14435662414579    1.19391417411669
H         6.75521008057133    4.30915400787353    0.06443576280214
H         3.03628342995203    3.27809874097894   -0.05610438206736
