28
 energy: -47.949440492853 gnorm: 0.111538246500 xtb: 6.4.1 (79825abcba525fcdf90b791dcacef51065a7a4e7)
C         1.15379673441200    0.15727023730693   -0.96907822851416
C         2.51741936165154    0.00077196486438   -0.33239177027155
C         3.14329310780879   -1.25340373561313   -0.13377141922135
C         2.50159376932309   -2.59725818966606   -0.43793055038521
O         2.81040467177716   -3.66080328704295    0.46241430541710
C         4.48608684444155   -1.28206007580984    0.32280818707529
C         5.20567211878550   -0.09271845780749    0.50234123234798
O         6.48220321396362   -0.11733769870854    1.01055536286314
C         7.50045139507318   -1.06020068091960    0.69326407762730
C         8.69332651635510   -0.39691567303523    0.04256908627547
O         9.66074475624419   -1.00285445478912   -0.41345324982261
C         4.58333105086783    1.14280573768218    0.30807980709367
C         5.33021892175497    2.37021911833888    0.43502111124116
C         6.14265374873696    3.23747347429432    0.31758494210282
C         3.22781877427131    1.19680491476682   -0.06212087668404
O         2.65457864653162    2.44972385364191   -0.02658315883064
H         0.37716195111187   -0.43077891084327   -0.48064213764365
H         1.19847465787935    0.07479591164593   -2.06398622917327
H         0.95523995648461    1.23026350705408   -0.86335461221809
H         2.78778017833846   -3.02699395855612   -1.39026082606174
H         1.41187862768405   -2.49295582385020   -0.34969761473689
H         3.17545150065903   -3.32151225650890    1.29740704565953
H         5.07774903988393   -2.18509607784805    0.41110968167457
H         7.04991836228578   -1.92798901847439    0.20655454453234
H         7.93112464344546   -1.42408721665899    1.63255930436899
H         8.69215046221188    0.70606810908762    0.06270880781426
H         6.80109722009441    4.07879862072823    0.32272918943340
H         3.21838035413255    3.09064375601799    0.43813715958737
