28
 energy: -47.954069683921 gnorm: 0.112207582398 xtb: 6.4.1 (79825abcba525fcdf90b791dcacef51065a7a4e7)
C         1.32066398913652    0.19212833611086   -0.89939883617277
C         2.75465679634821    0.03207987656710   -0.44401201104410
C         3.60743595616126   -1.06706205498387   -0.70627031563018
C         3.20407102174545   -2.26492127895400   -1.55046557332448
O         3.81734333932596   -3.50229869567593   -1.19003887550055
C         4.88748951377341   -1.05975223391627   -0.09488614011148
C         5.37596538523143   -0.00268566340783    0.68522293398703
O         6.53321052093588   -0.04116788870574    1.42530548027102
C         7.49511728788529   -0.96742558773873    0.93207553272773
C         8.05128026087005   -0.64144449709823   -0.43566753845335
O         8.55458012827287   -1.47192027381766   -1.18933554107603
C         4.56720381154300    1.12594233378784    0.83907196736683
C         4.91245067602910    2.28594245447044    1.62373974797693
C         5.11163113817795    3.14051714473486    2.43367861347399
C         3.24785303612952    1.09453820547513    0.35357704018120
O         2.35219400422599    2.07600209025835    0.71990558178924
H         1.16146389967536    1.13044630837541   -1.43019815965085
H         0.60366432819267    0.17274435820563   -0.06683808188449
H         0.98140650825083   -0.62765994040106   -1.54342396981660
H         3.49478458951411   -2.06821194549426   -2.57530678565869
H         2.11477514151023   -2.40470204206884   -1.55670632040514
H         4.14591643800274   -3.22456850401213   -0.31797458375982
H         5.62403317607535   -1.83114561392759   -0.28407129740722
H         7.19261492066238   -2.01473323967305    0.86453454591388
H         8.29808984046471   -0.95910048190441    1.67728299138363
H         8.04312279658122    0.44872547077283   -0.60431840145553
H         5.33363721659314    4.06850413036098    2.91425714873566
H         2.93465491494274    2.77682064233456    1.05785278435594
