28
 energy: -47.953825166351 gnorm: 0.116636376682 xtb: 6.4.1 (79825abcba525fcdf90b791dcacef51065a7a4e7)
C         1.26198100631007   -0.15455143966538   -0.51634820218626
C         2.72930181022263   -0.02961002680673   -0.16894736674208
C         3.60297078472401   -1.14293018820061   -0.13226697733879
C         3.00965423802919   -2.53493099121136   -0.27560181437440
O         3.13755243766786   -2.92725299342242   -1.64192487836554
C         4.97919547162053   -0.94632937645425    0.15010669983330
C         5.48466543954770    0.32702155388862    0.44615754671228
O         6.75560801890847    0.41334805891587    0.96159139513493
C         7.26875777695725   -0.85215213607139    1.36368630813901
C         7.96474479338058   -1.56987939556459    0.22932671421823
O         8.21144481113497   -2.77379364644219    0.25663621501021
C         4.65900486658441    1.44357082869858    0.29394619560937
C         5.23178577583521    2.74128381413956    0.55540791603797
C         5.81238658566130    3.74292745003634    0.84795610511829
C         3.32332270716241    1.25532299394606   -0.10341247474570
O         2.58587524638119    2.36698477809185   -0.44989821673196
H         0.74709336776057   -0.35381975918438    0.42318150283437
H         1.05642072673741   -1.04595369951297   -1.12525595089369
H         0.73041608940082    0.68564532864868   -0.97832758911594
H         1.95031276826436   -2.52144958985030   -0.04949928422392
H         3.58484667704125   -3.23675179085342    0.34306154579293
H         3.69559250837307   -2.25413791207218   -2.06748079185743
H         5.52486641270293   -1.87937054322584    0.22090743415336
H         6.59749785478775   -1.48936373935167    1.94359515844179
H         8.04869345343665   -0.56851867908821    2.07882320985760
H         8.29762485408085   -0.93136714207480   -0.60642036721817
H         6.42434029788495    4.60850589987667    0.98095561506997
H         3.15978161535942    3.14225603967191   -0.33072768673710
