28
 energy: -47.953490664251 gnorm: 0.110239778509 xtb: 6.4.1 (79825abcba525fcdf90b791dcacef51065a7a4e7)
C         1.00756070438130    0.14841692162570   -0.11434857087849
C         2.51258599848545    0.00629009867684   -0.05089091517866
C         3.21628196510273   -1.18828071556745   -0.33713774773055
C         2.45027024692291   -2.49556007532095   -0.45748035301984
O         3.10646034265324   -3.65336488010549    0.05828684238466
C         4.63033972907021   -1.16098496389141   -0.44703192911263
C         5.29013216363960    0.05313256990141   -0.21216785915763
O         6.65541457947959    0.19393418171231   -0.14435791595380
C         7.54948950604557   -0.91079999586223   -0.22612680132958
C         8.79526516595555   -0.71425581446665    0.60796876874628
O         9.71915217661009   -1.52246584109994    0.67312683758850
C         4.57512487965684    1.19499602683809    0.15726196013236
C         5.35392915236281    2.35790266469391    0.50599002510631
C         5.87783799525036    3.41190556072920    0.70740785866989
C         3.17108835641328    1.23000483844607    0.22678767741783
O         2.50959386671003    2.29566300496561    0.79816387271847
H         0.62749948226596    0.77589994497530    0.69147506394677
H         0.50691511086494   -0.81682580344956    0.04465499939379
H         0.64478600548544    0.52388842597987   -1.07836750035497
H         2.19013919832144   -2.66111427618562   -1.49595620381337
H         1.54470484116881   -2.41420125824433    0.15853520377843
H         3.77956592649953   -3.93326381951703   -0.58527816920537
H         5.24515851018258   -2.01093941813537   -0.71705160050837
H         7.69910323202697   -1.13376871003670   -1.28481630723308
H         7.03823068494223   -1.77284463674921    0.21620999038853
H         8.78824755502001    0.23541616477815    1.16926557144366
H         6.16414050274577    4.39823161890175    1.00167653532523
H         3.08463321926924    3.06916917860796    0.67312944730301
