28
 energy: -47.944484872842 gnorm: 0.126226997117 xtb: 6.4.1 (79825abcba525fcdf90b791dcacef51065a7a4e7)
C         1.42746988977100    0.02071937288528   -0.95606928353366
C         2.73343135543282   -0.05646606085416   -0.19591462705783
C         3.55389234942458   -1.18624997407606   -0.42948853232687
C         2.93346619227653   -2.37401327921632   -1.14679275171409
O         3.71363112578040   -3.56026964306664   -1.00101301856745
C         4.87843725624863   -1.17744770380694    0.07833472655427
C         5.35381765956948   -0.00011389163792    0.67202414970854
O         6.53598761358535    0.10823680422840    1.36423342892198
C         7.54448968582845   -0.85763390863403    1.08762708779275
C         7.95274408007951   -0.77090057561595   -0.36568213985456
O         8.81165777642720   -1.44104072644838   -0.93506397196489
C         4.59997613846525    1.16419789894059    0.83835803733621
C         5.13947323627968    2.40444331401677    1.33958989009724
C         5.31019880391757    3.51980847159661    1.73046717877920
C         3.27696510532543    1.12674320597280    0.36336652192364
O         2.50794247027835    2.26899029723727    0.42293842202681
H         0.82670028183343   -0.88846024899842   -0.95484488060823
H         1.57047946416256    0.55020809788344   -1.90833585111858
H         0.79703812462991    0.65628285877071   -0.32319356217670
H         2.84366176756857   -2.10859963250320   -2.19321485230441
H         1.93447820152155   -2.57229130252608   -0.73587676668876
H         3.48356022312806   -4.24849679880700   -1.64831606157607
H         5.44530604828396   -2.04875803815415   -0.22631819283687
H         7.26593034483943   -1.90759225403300    1.20127105311409
H         8.30426696001368   -0.68098472566027    1.85684873505346
H         7.32979221773818   -0.01744574139333   -0.87677607111969
H         5.51238598962028    4.48381624758920    2.14424442974719
H         2.86096557026777    3.15273908642238    0.62036796021359
