28
 energy: -47.953797692805 gnorm: 0.110900852248 xtb: 6.4.1 (79825abcba525fcdf90b791dcacef51065a7a4e7)
C         1.34242851477498    0.03255497758551   -0.78308264414287
C         2.78094180281970    0.07540608223356   -0.31599448697676
C         3.58680112903481   -1.07848947430239   -0.46844279971060
C         3.14309004801621   -2.35927153037366   -1.15615889443863
O         4.19460555498765   -3.27773936142748   -1.45254579289516
C         4.91509285250650   -1.00050113766882    0.02343124325089
C         5.35016873626079    0.16366616866581    0.67149916944964
O         6.66736612585773    0.32509261778393    1.02836315160068
C         7.50056273964364   -0.82586439700343    0.94132818361362
C         7.89636345168975   -1.30987446968236   -0.43539912301707
O         8.38511227610027   -2.41073437863056   -0.68085436820435
C         4.52759286867111    1.28781482628628    0.77744582200292
C         4.98889180336666    2.53437905750922    1.33760661101678
C         5.12256600323588    3.53950277649971    1.96834367184817
C         3.17986763258248    1.24446799699671    0.37852760998657
O         2.23059209473622    2.23240337374338    0.52863652868875
H         0.76338573831548   -0.28904814018209    0.08225781465381
H         1.12651473162856   -0.57314504633130   -1.67422257809389
H         1.04707684952476    1.05141073486736   -1.05988071217942
H         2.57038645159004   -2.21727122221875   -2.06464937317357
H         2.48879713774118   -2.80442906271393   -0.39466123180540
H         5.07071256749761   -2.93697783443797   -1.20373150137126
H         5.57245707139180   -1.85373838330217   -0.09143310268824
H         7.11992208851095   -1.70094602748119    1.47261682407369
H         8.43971816627706   -0.53843209873077    1.42665090305397
H         7.66466486696516   -0.60122574162306   -1.24848765571730
H         5.30469140009397    4.35447492048831    2.63471670209693
H         2.48337180793802    3.03381890267573    1.01695120528410
