28
 energy: -47.952969435839 gnorm: 0.110796345175 xtb: 6.4.1 (79825abcba525fcdf90b791dcacef51065a7a4e7)
C         1.22054674412340   -0.12998247011940   -0.31876796401579
C         2.72972707715796   -0.02718705362110   -0.28506550400842
C         3.55844221120884   -1.17276851275667   -0.21436164486012
C         3.05041242469354   -2.56970205713473   -0.53172268756133
O         2.62599788054626   -2.83952161575032   -1.86745578572768
C         4.90571451214158   -1.07416625979014    0.21866963962723
C         5.42802929472353    0.19186970129896    0.51684539729638
O         6.72189811701453    0.48455406059234    0.87553564429946
C         7.58368428303106   -0.55307131862651    1.33067507874734
C         7.94166099961760   -1.65531870732274    0.35948745850580
O         8.39543217851977   -2.75531035885147    0.66791299728110
C         4.67797385204955    1.34558082425943    0.27615174662428
C         5.22516038682635    2.66475963340226    0.47827388863916
C         5.82368863175055    3.62240645519125    0.86640817397632
C         3.34144472301147    1.24382970001984   -0.14895363930944
O         2.62092505315065    2.40222539697889   -0.34553404883996
H         0.94658262302003   -0.67875593310660    0.58196760089717
H         0.84562746435139   -0.65878442782759   -1.20613805870987
H         0.96008451685288    0.93490639531641   -0.32814702870906
H         2.19682852018763   -2.64068515011270    0.13150002886548
H         3.88675031724151   -3.24293726788323   -0.30055952297828
H         3.36039533398902   -2.83834569086685   -2.50483280469155
H         5.45887295610634   -1.99534513259285    0.35571178092843
H         7.17251599321922   -1.00533395762664    2.23583911196820
H         8.46999898836527    0.07518253096230    1.47178400162066
H         7.92169714681579   -1.21918047685484   -0.65360933073863
H         6.16994268741193    4.61891336966862    1.03518130111668
H         3.25648304788257    3.13696222980743   -0.37457685489302
