28
 energy: -47.952886374616 gnorm: 0.124151844614 xtb: 6.4.1 (79825abcba525fcdf90b791dcacef51065a7a4e7)
C         1.52420547441832    0.21227427833618   -1.07343755013870
C         2.78008025710962    0.01477566069218   -0.25301029716737
C         3.58039304696153   -1.13130183465259   -0.47690875288755
C         3.29307708452579   -2.26236173852709   -1.45076123586478
O         4.41484901867418   -2.87360978159456   -2.08724907441321
C         4.84199605417938   -1.13271368267026    0.17173369383254
C         5.27489151829284   -0.03387558293230    0.92653494118522
O         6.52288243507868   -0.10741006165270    1.49708792490630
C         7.48419702610442   -1.04723133817815    1.02900251270429
C         7.73916910690081   -0.89054830384897   -0.45313840363079
O         7.75466521010053   -1.83071084056555   -1.24488994634407
C         4.49003938430524    1.10748617680906    1.10782589165516
C         4.82628078794688    2.16803543776194    2.02579983882539
C         5.19183914355084    3.12168149634181    2.64458735922900
C         3.22924467891391    1.13752545060248    0.48583525769439
O         2.42503580256373    2.25667924724959    0.46544133175276
H         0.75623337935611    0.64447221118727   -0.43237825590569
H         1.06518866594991   -0.76157649230424   -1.29375530653435
H         1.78227141437359    0.81751564083316   -1.95036496834416
H         2.59109848185489   -1.87456368703140   -2.17901061868619
H         2.77313051105436   -3.08323400239466   -0.93893371189517
H         4.96250217831127   -2.19427831787292   -2.51640551063254
H         5.37612008728334   -2.06840627788083    0.05981309787313
H         7.14694713438229   -2.05238047736066    1.29141536087476
H         8.41078589418850   -0.83717114730218    1.57441627152585
H         7.88569341464231    0.18354608695350   -0.65766733355089
H         5.57699803798873    3.96817073586846    3.17043035787057
H         3.00272439450289    3.00170318643252    0.70172693523953
