28
 energy: -47.951029656514 gnorm: 0.113603428033 xtb: 6.4.1 (79825abcba525fcdf90b791dcacef51065a7a4e7)
C         1.39187798288312   -0.10365236856870   -1.01423562218513
C         2.77531025531084   -0.11144512862111   -0.40155098646313
C         3.34522632585084   -1.27524563753772    0.16843915638650
C         2.56588805088354   -2.57449241912282    0.04667997429749
O         2.31385817195912   -2.80804193559397   -1.33861738941198
C         4.54042218610279   -1.26205848431389    0.93245101857950
C         5.28660364061962   -0.07557990447435    0.92535071103778
O         6.46102307153168    0.09299418599388    1.61870570880004
C         7.50968089137393   -0.82312153695248    1.32282989632292
C         8.07240107986647   -0.59515067640559   -0.06197236804933
O         8.84054949847509   -1.36094945546907   -0.64034635449661
C         4.78931699464756    1.08016020028613    0.31827840003316
C         5.61410753815849    2.24579987532381    0.52200352033828
C         6.12260849340271    3.29349913868911    0.78605799589256
C         3.54541040516545    1.07643249149991   -0.33751158771210
O         3.01441187572573    2.24294311012221   -0.84443031221793
H         0.65544831159776   -0.83450092738293   -0.68097157305597
H         1.45349853351450   -0.05163417767407   -2.11019122374725
H         0.86138282943105    0.80869518473469   -0.71739616325956
H         1.58170990326226   -2.55568206239724    0.49894980025172
H         3.11355541428891   -3.45613521365194    0.40571976438501
H         3.21073327899312   -2.57384527251684   -1.63248374596465
H         4.80244439542603   -2.14424117920010    1.50379451756878
H         7.18473788311236   -1.85383736104056    1.48081634406105
H         8.32661837011882   -0.61924244031628    2.02369711208198
H         7.67771678809710    0.33932259208668   -0.49552079385687
H         6.94258742962735    3.97334107448170    0.86883340373173
H         3.55572806828333    2.99051969082782   -0.53992793153838
