28
 energy: -47.954743786406 gnorm: 0.116435610563 xtb: 6.4.1 (79825abcba525fcdf90b791dcacef51065a7a4e7)
C         1.22542072020184    0.03042986275679   -0.76886401378500
C         2.63997838486034    0.04784426889114   -0.23215981744919
C         3.52769369684203   -1.02836599430711   -0.47269610863153
C         3.08516472238065   -2.30053497160696   -1.17696157369480
O         4.18296488866684   -3.20660074818464   -1.28180823719124
C         4.82332030355136   -1.13348917432260    0.09535493222335
C         5.29498061250134    0.01978293384272    0.73728062053835
O         6.60852097048328    0.21670061220751    1.08977817256155
C         7.49808452353773   -0.89400093727158    1.05088745908092
C         8.03350972837950   -1.08832678102799   -0.34977643695234
O         8.86511056166701   -1.92761514641916   -0.68896860118105
C         4.49371730296826    1.15856242190235    0.85008293391759
C         4.99989711571395    2.38284844548956    1.42052570575101
C         5.34689204287134    3.51672252419167    1.56157829198559
C         3.16467730500971    1.20622580332038    0.39318152410042
O         2.36616837640568    2.32703861492582    0.46956989363913
H         0.61291853774545   -0.80641491345659   -0.43410275139531
H         1.28610289571169    0.05419643138249   -1.86584828429902
H         0.68021562950858    0.96939210721931   -0.61714670644527
H         2.59977042962528   -2.06444750955680   -2.11619719040086
H         2.33937125675706   -2.77965069636256   -0.52859180190887
H         3.92371726952852   -3.91876361580197   -1.89107434550191
H         5.50311204010689   -1.91354670390467   -0.22515838242210
H         7.08967871862161   -1.83542442169909    1.42485177066777
H         8.26534918339815   -0.68827435934429    1.80530770072682
H         7.53834959249069   -0.39842086906271   -1.05392591619167
H         5.65312823105539    4.45590549764212    1.96846527819579
H         2.58334413747824    2.84732982727326    1.26124369357369
