28
 energy: -47.956060508489 gnorm: 0.107968044968 xtb: 6.4.1 (79825abcba525fcdf90b791dcacef51065a7a4e7)
C         1.06381758796999   -0.00744410214098   -0.15004962767943
C         2.57198063994474    0.06329286021419   -0.05121376518210
C         3.34871181927798   -1.12024968312746   -0.04485512947418
C         2.59862372334970   -2.42158229907873    0.18781825658210
O         3.43647277582118   -3.51596808182961    0.55854988251484
C         4.76361947234845   -1.02143156848693   -0.01931168592348
C         5.45365404094774    0.19850457875014   -0.03260339759482
O         6.80929593455694    0.31395517954656    0.16059486468321
C         7.62229883088785   -0.71602429606711   -0.39136736290457
C         8.07517259087729   -1.66587521549902    0.69444598213573
O         9.17246946213741   -2.21562857942506    0.76319949243210
C         4.68816930559810    1.36076243668900   -0.15407663785483
C         5.32773424645074    2.65311104865419   -0.19000637017850
C         5.72134953006943    3.78049158421609   -0.19720732212695
C         3.28458448234086    1.28673859948877   -0.11108700179628
O         2.55085032132131    2.44016562509082    0.06473487040811
H         0.49487021281920    0.33569798505626    0.71371283739993
H         0.69464725708689   -1.02669979980334   -0.33019610169736
H         0.76854753587042    0.72565868457180   -0.90984745075727
H         2.12067181723709   -2.68787789479888   -0.74714542432430
H         1.85652886966990   -2.27396648254699    0.98383831072622
H         3.46435515309538   -3.52958838043309    1.53046939002054
H         5.40815030091287   -1.89111501001605    0.02026177952383
H         8.46466692746797   -0.25679102339749   -0.91332864126508
H         7.14549395587561   -1.31838961659316   -1.17238049546016
H         7.28123526799844   -1.90588804298358    1.42179568228302
H         6.25961302904457    4.69107531613895   -0.04716751965556
H         3.17079835557923    3.18864916197298    0.05748955553206
