28
 energy: -47.953397727972 gnorm: 0.110646154488 xtb: 6.4.1 (79825abcba525fcdf90b791dcacef51065a7a4e7)
C         1.54308950580286    0.00473203064688   -0.96244522681916
C         2.96687376793562    0.05221036596279   -0.45262935450973
C         3.77501428032709   -1.10887325880588   -0.39860688620028
C         3.31471385497932   -2.55044906145540   -0.54079810348881
O         2.92940818289448   -2.95114096402133   -1.85536980032521
C         5.09894021612026   -0.91862467461314    0.07405234133320
C         5.62097535721801    0.32857196710364    0.44357692316179
O         6.93554439325698    0.43134385656516    0.83057245198790
C         7.58569220706762   -0.76247192185664    1.25318981870031
C         7.75127888176122   -1.71016465182376    0.08667296287368
O         7.74254655083194   -2.93920438445100    0.10670573981657
C         4.77872373222469    1.43859520801243    0.54370957867369
C         4.98070551934576    2.70466715125871    1.20459109920633
C         4.86162738492114    3.84477546123131    1.53917316553665
C         3.47315373297096    1.27802582606200    0.04663568258948
O         2.49515968628397    2.23123481624139    0.23262848996545
H         1.41669053949213   -1.03145793972900   -1.27528202097297
H         1.37793482212636    0.68734139886466   -1.80766120157404
H         0.76991416361523    0.23640922835612   -0.22052717651751
H         2.41604326003849   -2.69876208493676    0.04563420988910
H         4.04293803452950   -3.19335324799589   -0.02844385461410
H         3.64163080703805   -2.69746439410592   -2.46690687926980
H         5.77331270869581   -1.76153690595587   -0.01570313554777
H         7.08867941039361   -1.22578946534449    2.10831432305180
H         8.59337052158846   -0.47123383780787    1.56931190992855
H         8.03903223529987   -1.24194859725954   -0.86985824414088
H         4.81120174777457    4.84591552422101    1.90873790823986
H         2.92775080683748    2.97110425008646    0.69096658497974
