28
 energy: -47.953472167329 gnorm: 0.116464301572 xtb: 6.4.1 (79825abcba525fcdf90b791dcacef51065a7a4e7)
C         1.24662369048593   -0.15852709907455   -0.54889797436894
C         2.72197573720306   -0.00058643521701   -0.25272383554048
C         3.51221426406939   -1.17514101507090   -0.24439872645128
C         3.01815823922845   -2.51516559393966   -0.76447409813446
O         4.05216550212578   -3.14812145630634   -1.51767332130350
C         4.85771799542000   -0.97060844691781    0.15581033054559
C         5.36875382434381    0.27261666345959    0.55305368294240
O         6.67097680398553    0.41897176498616    0.96683485098962
C         7.43363175656069   -0.76985795538938    1.14441596194981
C         7.79066854481493   -1.55774616428460   -0.09576907792373
O         8.53636622990465   -2.52407220279804    0.04971349875411
C         4.61305512366317    1.44279509634010    0.44737552577949
C         5.17315909076690    2.74735558395639    0.70213948150595
C         5.42291883374539    3.80492411475252    1.19725623118686
C         3.24318749984332    1.23398205037822    0.20813130415540
O         2.41585638349269    2.33626065076691    0.19478358783506
H         0.93659557808436   -0.05212244472133   -1.58817359812251
H         0.69924367922373    0.50788551554116    0.13219747821535
H         0.91400558075230   -1.15257160634401   -0.22771649891176
H         2.10214481127457   -2.42330897224794   -1.33542961987932
H         2.77545123068130   -3.22474427433287    0.03785658663707
H         4.39071380978344   -2.56988772468904   -2.22238692442909
H         5.53966125644317   -1.80777068786437    0.24211274785042
H         6.91940733887229   -1.52595854862293    1.74174997746293
H         8.37323008313535   -0.39840392434862    1.56790772292950
H         7.31131021786057   -1.31682913341551   -1.05969583561551
H         5.76458261499501    4.81502034127223    1.26339055343154
H         2.93135386550473    3.06626364302518    0.57684855972937
