28
 energy: -47.944732960399 gnorm: 0.125027504969 xtb: 6.4.1 (79825abcba525fcdf90b791dcacef51065a7a4e7)
C         1.21388111236865    0.07139504439966   -0.90007990186296
C         2.60588211706690    0.01040346923331   -0.31021445038333
C         3.55598426368175   -1.02399048266336   -0.48758342708533
C         3.05391689390831   -2.24196440892666   -1.24567544438500
O         4.04104616690168   -3.26660095426802   -1.13249874143581
C         4.89396888419890   -1.09726716881690   -0.02195607142139
C         5.35597100219109    0.04181795025818    0.65154798217514
O         6.53684420604424    0.06884913922460    1.35384930171018
C         7.52340916903297   -0.91764833348930    1.07099591647373
C         8.01874868548675   -0.93636166324776   -0.35749650704638
O         9.04235982518958   -1.46100391693302   -0.79107114821718
C         4.47469204240335    1.11368245684214    0.81285462089219
C         5.02315425907263    2.28925453252194    1.44350405431768
C         5.30094291225141    3.44038225397474    1.59748511389853
C         3.11989181749090    1.09968317786705    0.43642619085697
O         2.42920989929737    2.25079078053263    0.74880867411290
H         1.19962416877678    0.56286946506733   -1.87259357053618
H         0.47350269082707    0.50517589886812   -0.21357016195638
H         0.79874521056074   -0.93775444877898   -1.00589251132480
H         2.90622193156212   -1.98686286888057   -2.28808508264249
H         2.06404690286072   -2.56514362415326   -0.89659705297019
H         3.83941249940558   -3.96681221885198   -1.77642305181438
H         5.44677407054900   -1.94948652849654   -0.39807296477191
H         7.06426238944226   -1.89514918845635    1.23408821385476
H         8.39422246191823   -0.80397691749006    1.72592446135091
H         7.24598765212143   -0.73679607767907   -1.11906999527489
H         5.52578449400979    4.45664177913915    1.83845215944074
H         2.98835704540100    2.71427386047459    1.39468294125070
