28
 energy: -47.945918467141 gnorm: 0.115714473402 xtb: 6.4.1 (79825abcba525fcdf90b791dcacef51065a7a4e7)
C         1.20913138261112    0.01465845529263   -0.51816872113490
C         2.68201850940732   -0.07182848063870   -0.18283073668334
C         3.41764190588688   -1.25516940681048    0.06754334092631
C         2.92648045898593   -2.56413421066727   -0.52878476596263
O         3.38754010490654   -2.58538286357356   -1.87937194151842
C         4.74208603959134   -1.14256705755882    0.56307296063428
C         5.35173373787416    0.09330302593328    0.81904833551798
O         6.59914640165278    0.38008766581625    1.31918389689401
C         7.49307022939109   -0.72611963666134    1.38000600738732
C         7.70632465408861   -1.41780614854984    0.05245399198723
O         8.17152251622032   -2.55231020578383   -0.03419313282260
C         4.69239153442277    1.26865261867017    0.45109839510759
C         5.29027579652436    2.57816701065885    0.54168347547406
C         5.93225946422350    3.58061053089747    0.63621215965797
C         3.33816446155578    1.15422852505996    0.09005245412668
O         2.79667529853145    2.30094958335485   -0.44984880230981
H         1.03170606507292    0.71595598584548   -1.33317500282572
H         0.81605093169217    0.54307462101907    0.36153906243847
H         0.72208926472512   -0.93638755352483   -0.76356287550772
H         1.85193988972821   -2.54856654792563   -0.66527163575321
H         3.27831901425162   -3.54138235580953   -0.17193911699079
H         4.35982990773318   -2.57541319488390   -1.89135584182571
H         5.27183600058463   -2.08400385083422    0.64305467573725
H         7.10447050752360   -1.47634851085502    2.07215460295389
H         8.48817166290095   -0.34200174449931    1.62979585053326
H         7.73089067359689   -0.76224204106214   -0.83445774450299
H         6.43158564703409    4.52506811101934    0.62752260801758
H         3.31306638045976    3.08706280111001   -0.20493672933049
