28
 energy: -47.955862470824 gnorm: 0.119919290679 xtb: 6.4.1 (79825abcba525fcdf90b791dcacef51065a7a4e7)
C         1.17859785630708   -0.00404442978952   -0.64456792477877
C         2.64322426628892   -0.02083596316650   -0.26520588447940
C         3.46591245059487   -1.17275384852148   -0.24535547385758
C         2.89396240316022   -2.43469230968191   -0.87035154563672
O         3.73655897583236   -3.57862496720907   -0.73410800050058
C         4.80198979915299   -1.03172812839789    0.21004568017550
C         5.40626834593390    0.18160028398115    0.56676709851469
O         6.68511736189647    0.41139900666749    1.01415629930406
C         7.59315607638619   -0.68444827322331    0.98132093730375
C         8.02595664933480   -1.16666672687443   -0.38486025714984
O         8.64918371726585   -2.21365954958984   -0.54737265770546
C         4.59474555846888    1.31860193831194    0.55180150070653
C         4.98984039232405    2.62249103164864    1.02537569632608
C         5.29110944001520    3.43543657369326    1.84655061323400
C         3.29566239986431    1.20296501754296    0.02607432825634
O         2.55814632272247    2.35585258287970   -0.13700037442177
H         0.58789089422845    0.40528507730099    0.17460717621710
H         0.79925394653928   -1.00757808916983   -0.88255963655858
H         1.04362045827866    0.59058271456076   -1.55567521289054
H         2.68803674809069   -2.18754335687935   -1.90476948320136
H         2.00542075894753   -2.72352286092406   -0.29310481417798
H         4.55442734312653   -3.49391426214338   -1.25324757498106
H         5.38365390740732   -1.94104842418121    0.11983040251013
H         7.25978654942922   -1.59355850152763    1.48659921190387
H         8.52116265721818   -0.26567822424954    1.38580062203713
H         7.92509525076789   -0.47868170438737   -1.24129694614963
H         5.65428595652945    4.35363850730769    2.25448480947424
H         3.08600462682790    3.01649904538968    0.34208994073135
