28
 energy: -47.953763333986 gnorm: 0.119564126518 xtb: 6.4.1 (79825abcba525fcdf90b791dcacef51065a7a4e7)
C         1.65000455199508    0.04079006149004   -1.40074868917016
C         2.88901436439735    0.06334030999844   -0.53260456410408
C         3.49107235722591   -1.15891542921808   -0.14823261165876
C         2.75021296287297   -2.42716648086360   -0.53925980445618
O         3.33586222834585   -3.65397571463256   -0.10444115648240
C         4.72874570888608   -1.15580274357216    0.54497453859612
C         5.33343541982728    0.07296574483186    0.84338188224184
O         6.50380185005564    0.14751900287587    1.55969438293375
C         7.48651596294523   -0.82908586273566    1.23257109598206
C         7.67293465918580   -0.95481121169082   -0.26266909899872
O         7.96464752552199   -1.94610745551951   -0.92844052479976
C         4.69009508954660    1.27027295690971    0.52068290529136
C         5.40318865962660    2.48593233115663    0.82755267889870
C         5.98705520430807    3.52554104072227    0.89301502035401
C         3.42592428501390    1.29944883819478   -0.09445850171865
O         2.71297299445799    2.47087691797267   -0.23276887362444
H         1.93632968991439   -0.38001700830612   -2.36432148731405
H         1.31423728182835    1.07298360659914   -1.57238345739905
H         0.83722272738404   -0.50772391413005   -0.91040701721804
H         2.51927296633703   -2.60051999127520   -1.58334970806318
H         1.80202007570024   -2.41259995015136    0.01469073086994
H         3.34094371679807   -3.78939882713755    0.85848419183281
H         5.13436289189376   -2.15266972187582    0.66771925146777
H         7.20998015824449   -1.83377850923208    1.55974600431306
H         8.45982164332399   -0.45108210931775    1.56416964684571
H         7.51975213331835    0.02862912592215   -0.73844260935788
H         6.72945592007186    4.27329657645277    1.06938143670243
H         3.16507714395372    3.29426721835486    0.01672243089719
