28
 energy: -47.951132693778 gnorm: 0.112418447260 xtb: 6.4.1 (79825abcba525fcdf90b791dcacef51065a7a4e7)
C         1.38230905177651    0.06819292429689   -0.93767813909804
C         2.79195929787673    0.06122562894723   -0.38798214696370
C         3.63955952884875   -1.06805238729431   -0.49010811603749
C         3.28080086445089   -2.19176118887583   -1.44865200004322
O         4.10693205560484   -3.35528881448502   -1.41994782497254
C         4.94598921797512   -1.05643808553149    0.06260132921319
C         5.35462107597389    0.09944699547846    0.74195267610919
O         6.61390037762969    0.21313344628803    1.28020018823224
C         7.63276549847666   -0.71500442075246    0.92387492574822
C         7.78626201139439   -1.09149958829823   -0.53248774818459
O         8.28141386320762   -2.15317953110908   -0.90488078251360
C         4.51492128696818    1.20159067488728    0.92013662860484
C         4.90810817689574    2.41362653865301    1.59605993895233
C         5.14261837671503    3.50532342398338    2.01935013326549
C         3.21585283848935    1.17240913274318    0.38259815966632
O         2.26266209181876    2.01594339413072    0.91132342396295
H         1.23733892202350   -0.76995212727231   -1.61887542545781
H         1.17409011193951    0.96634400821198   -1.53566740956580
H         0.67933504680692   -0.17014360719677   -0.13086956431528
H         3.43813362848762   -1.80975862825319   -2.45006544962821
H         2.24468650734237   -2.55579368666909   -1.43913870966400
H         4.00458633791118   -3.86180159039204   -0.59619990910889
H         5.57349947164498   -1.93931930532009    0.05327585807135
H         7.54750888930328   -1.56730552425750    1.60154514272989
H         8.46395393995627   -0.04418673433124    1.16738630521241
H         7.34757876225481   -0.35474087000474   -1.22655101134571
H         5.31403208342591    4.49687362555899    2.37830389639831
H         2.69309365679355    2.84184637452625    1.18922376428941
