28
 energy: -47.955979816652 gnorm: 0.112512557077 xtb: 6.4.1 (79825abcba525fcdf90b791dcacef51065a7a4e7)
C         1.01682772533372    0.05967284697416   -0.20231027695456
C         2.52595324271944    0.01957414288456   -0.10101710262037
C         3.33161754117660   -1.13324167600342    0.06036887812873
C         2.61458775331160   -2.44813574807260    0.31951651967310
O         3.55457689003145   -3.43588788381971    0.74127398502409
C         4.74881226984741   -1.07810361553641    0.03036792558264
C         5.38886073023222    0.16575038796107   -0.05757395686847
O         6.73916015888584    0.38371218354302   -0.19025205467287
C         7.63916742891176   -0.67695679649210   -0.49267883922985
C         8.14992668535181   -1.37092238745526    0.74983424807301
O         9.01962745899989   -2.23812152201555    0.69881997990696
C         4.62765153730880    1.33695839556655   -0.03761515031185
C         5.36487130086110    2.57394017273363    0.04534461434930
C         5.79209833884112    3.62872190376605    0.40712395677462
C         3.22578468496013    1.25180839116969   -0.10759241039917
O         2.54636497277366    2.43387299681640   -0.30954582718980
H         0.75625000441614    0.45570491681271   -1.18352944759764
H         0.53378003817693    0.73919471360918    0.51360635750748
H         0.66458844750661   -0.97053311971854   -0.07378016805888
H         1.98312786624024   -2.81365568997193   -0.48120942056580
H         2.05345094925193   -2.33959727241399    1.25732674476200
H         3.76673631159599   -4.11069396140475    0.07402919826815
H         5.28760269169690   -2.01741094412455    0.00312898042562
H         8.48589271234480   -0.22664642138929   -1.01536387459842
H         7.23588812370839   -1.44358297404733   -1.16336392748169
H         7.58544514362196   -1.18916610842698    1.68005221184007
H         6.20192139080508    4.61112451479429    0.49840623562241
H         3.29323698489076    3.05568684030580   -0.29748719892469
