28
 energy: -47.955414122747 gnorm: 0.117854069546 xtb: 6.4.1 (79825abcba525fcdf90b791dcacef51065a7a4e7)
C         1.29006382875307   -0.43584931130681   -0.07300904582835
C         2.75819304784623   -0.07172915984257   -0.10963075315901
C         3.64535911625015   -0.94277850342286   -0.78663452206376
C         3.17349727688759   -2.01127853220729   -1.75920313653951
O         4.05416358566158   -3.04881111056905   -2.18939635507344
C         5.03570304343030   -0.73692468302911   -0.59441298483001
C         5.50010165058318    0.31627417995313    0.20538365061157
O         6.80101269051545    0.59628293145128    0.54837771257903
C         7.78630762008154   -0.32680246458865    0.09715605153475
C         7.58901826484417   -1.61168109685185    0.86946806422430
O         7.55253994412310   -2.71869509011959    0.33635871162605
C         4.64491894029982    1.28508748061051    0.73607120393431
C         5.03714780490141    2.58688300636235    1.21771850737659
C         5.34921515221432    3.55109341118686    1.84929113665526
C         3.26621217596554    1.04078823630289    0.60621149308578
O         2.39935883888251    1.85082401160041    1.30769590929946
H         0.82491911552648    0.19478345624914    0.68427288144458
H         1.15758050030252   -1.51056002574494    0.11425203586850
H         0.80509781630631   -0.22075824342588   -1.03241543930342
H         2.87715871386587   -1.44595526984003   -2.63447539019149
H         2.21555816666999   -2.43107371913682   -1.42413928425883
H         4.26020651809905   -3.56076680344879   -1.38874777651612
H         5.70850882478135   -1.44136012233411   -1.06816230953917
H         8.73353937526965    0.12920798510706    0.39334730462246
H         7.81483798579129   -0.43666743559485   -0.99246961302086
H         7.16227890712183   -1.58090443038901    1.88628984513333
H         5.59403960833619    4.50418727468238    2.26531438499635
H         2.95417671227016    2.46323048140781    1.81931208188948
