28
 energy: -47.957661672710 gnorm: 0.109321563961 xtb: 6.4.1 (79825abcba525fcdf90b791dcacef51065a7a4e7)
C         1.31466411241182   -0.15102291037800   -0.69535243767366
C         2.77064728192476   -0.12533938426437   -0.28452228509142
C         3.54791976796219   -1.30408497976125   -0.18190155412706
C         3.02837682277553   -2.59146522031117   -0.80074150042695
O         2.70884535085442   -2.48348716600957   -2.18759174251870
C         4.87034716225093   -1.20968498221092    0.32273256325903
C         5.33208599914462    0.03079503528551    0.78379130062302
O         6.49776997360798    0.23982900517293    1.48086018988823
C         7.45645917669005   -0.80938634284743    1.56182869303632
C         8.01989724796472   -1.06197100944155    0.18159662585428
O         8.81481950999776   -1.93705572570621   -0.15506576750389
C         4.66995312905188    1.21942761939140    0.46709173158834
C         5.29611755281322    2.48505822391688    0.76136455228944
C         5.92983715744734    3.44222820715814    1.09029738553461
C         3.32656236066474    1.13157103954232    0.06093847907625
O         2.52140151488255    2.22497626830865   -0.17539617043712
H         0.79689119969437   -0.91266162411795   -0.11281412051528
H         1.06731861282738   -0.36513553035470   -1.74444616606257
H         0.87840952473648    0.80267070867253   -0.37587278477778
H         2.10982823279814   -2.84940654656438   -0.28766917256361
H         3.70744823207759   -3.44764216104487   -0.69135140472502
H         3.51615483376176   -2.09353391422884   -2.56412637483288
H         5.34144199800351   -2.15004555639687    0.58182132259510
H         7.01816689349225   -1.68085962849840    2.05310964350736
H         8.13810681407723   -0.34349517916668    2.28187751591229
H         7.64344059688235   -0.35632824332505   -0.57822499341269
H         6.52366611866770    4.27536203764214    1.39796190486468
H         2.96124772441881    3.09112640290781   -0.20597255747335
