28
 energy: -47.954551796648 gnorm: 0.118221781364 xtb: 6.4.1 (79825abcba525fcdf90b791dcacef51065a7a4e7)
C         1.08716856521667    0.19596396390118   -0.55592004502249
C         2.58091013577373    0.16200294689297   -0.31736021148543
C         3.32266011658090   -1.04057995310298   -0.22946245034232
C         2.75481265547270   -2.36768393181577   -0.70546654536626
O         3.47785691585554   -3.59245259246983   -0.58604324414770
C         4.66209670442785   -1.04732434319606    0.23770484322659
C         5.32935906940006    0.13435896356082    0.58835290772908
O         6.64072547160500    0.28093251665927    0.97208940785972
C         7.42603271395187   -0.84532222286041    1.34803690752020
C         8.22193650581033   -1.42704695495364    0.20154856537138
O         8.56897687024006   -2.59479553641263    0.03740696565664
C         4.67103826910761    1.31572422919770    0.23827321074526
C         5.37409381837903    2.55003377166936    0.48865702829644
C         6.11438910310222    3.47927644191818    0.36847932958915
C         3.28661451472696    1.35072449089257   -0.00570186823749
O         2.60945630659800    2.55000578351246   -0.05912641074709
H         0.62140388324073   -0.71061717963492   -0.17029445522292
H         0.88715247901588    0.24403443285482   -1.63541273029940
H         0.66709801887341    1.13202583995400   -0.16959669927606
H         2.39529966237438   -2.25324332972619   -1.72092811596897
H         1.84332774026441   -2.54734855496012   -0.11975416038180
H         4.21844747640022   -3.62920554737691   -1.21514204990109
H         5.07799613312958   -2.03826635704864    0.37334009078630
H         6.85203087494432   -1.51820487545244    1.98887511406724
H         8.19734078800416   -0.32772106095560    1.92884778598560
H         8.31898060753406   -0.73869800171524   -0.65503673469949
H         6.60878716931499    4.42548914674326    0.32780570781393
H         3.19488209894994    3.31811210699576    0.04998352387796
