28
 energy: -47.955534339234 gnorm: 0.118658195023 xtb: 6.4.1 (79825abcba525fcdf90b791dcacef51065a7a4e7)
C         1.33464362737815   -0.02144164662385   -0.60085956312549
C         2.83585669575179   -0.01650272122215   -0.41201315413994
C         3.57283040247368   -1.21898171609764   -0.28938071354225
C         2.91463201723719   -2.58804530517667   -0.34110494412815
O         2.17875417554930   -2.71693976415224   -1.55723949052554
C         4.95119342246341   -1.01891093329154   -0.02018149757627
C         5.52457499241301    0.20579058141810    0.34847599212188
O         6.75513885833236    0.33500857980886    0.94633436699527
C         7.43479221828588   -0.82995094358704    1.40178397799215
C         8.09601821714345   -1.69092619558070    0.34926137813777
O         8.82385564566335   -2.63508171737715    0.64899335475973
C         4.72506181401163    1.35133177931924    0.33953179279857
C         5.32904094233094    2.60852116681872    0.70720453034687
C         5.56933488534132    3.75461649347776    0.94107636642054
C         3.44401750120045    1.25069701170305   -0.23158649823620
O         2.76087202498136    2.42195940468588   -0.47883073027559
H         0.89825136427314   -0.71829319708896    0.11432776733353
H         1.06246163024141   -0.28288047442981   -1.63293919317600
H         1.02377880441630    1.01046481463695   -0.39974032125288
H         2.15830323599609   -2.69445610595823    0.42710854583952
H         3.72886402749018   -3.31351182445467   -0.21122927537945
H         2.75487469364504   -2.52272002272023   -2.31615602665620
H         5.47018943933419   -1.96182467713251    0.10185185469739
H         6.84935705594785   -1.43809979821683    2.09485210214819
H         8.23339227717670   -0.43248914739357    2.03773244281838
H         8.04760214324952   -1.22936504243714   -0.65153700381803
H         5.73112514518979    4.78299439715539    1.18121187944936
H         3.33293910848082    3.13522392677571   -0.14927248358930
