28
 energy: -47.947373635453 gnorm: 0.121330051008 xtb: 6.4.1 (79825abcba525fcdf90b791dcacef51065a7a4e7)
C         1.18319306849323    0.00345508111413   -0.68915632258491
C         2.62944321236233   -0.01154526651960   -0.24478760128126
C         3.36977326413185   -1.21738851216317   -0.28926459456410
C         2.64468047474789   -2.53161928876566   -0.52858353117644
O         2.23224767960432   -2.64656386985682   -1.89012682891156
C         4.76592453437434   -1.16139972874955   -0.04429916969104
C         5.40999184311973    0.03697246322910    0.29282096660092
O         6.76875166748219    0.18440514302965    0.43584097483152
C         7.44729870907758   -0.69596843207017    1.32522841385541
C         8.51470661442369   -1.52815347481128    0.65112867981875
O         9.48108532451771   -2.10269899822395    1.14814564184457
C         4.75017724963051    1.26600523144374    0.21739456112829
C         5.47913106324901    2.49377030850952    0.42164551748376
C         6.02445348336604    3.55385007959140    0.49111534802230
C         3.35976110020552    1.17142672188861    0.02984230151270
O         2.65079360152686    2.31476475458295    0.32953596781459
H         1.09841472320657   -0.34408974582175   -1.71850487187658
H         0.77224979687381    0.98696476694116   -0.42184378354521
H         0.74382252330209   -0.67033087946558    0.05574826237953
H         1.80147013262456   -2.69773106896860    0.13089478251475
H         3.33441249360105   -3.36890606796875   -0.35722507317424
H         1.39582662726936   -2.15697785989410   -1.96947310009562
H         5.27666684461676   -2.09729270653575    0.14696496827764
H         6.70775099890128   -1.33539112116242    1.81218898252616
H         7.88217413652186   -0.04631090234555    2.09268970994143
H         8.39784718121834   -1.57994256389628   -0.44460941832288
H         6.62574968629779    4.42869632297610    0.61148642920477
H         3.25861313472433    3.05803287437048    0.48027939818379
