28
 energy: -47.954045294352 gnorm: 0.114717444378 xtb: 6.4.1 (79825abcba525fcdf90b791dcacef51065a7a4e7)
C         1.21377276581224    0.00761817086152   -0.50014686316670
C         2.71575820157142    0.02603069131265   -0.31840869596708
C         3.48433285817215   -1.14272068491524   -0.10060625633976
C         3.04617719027653   -2.57874784623462   -0.33742100223622
O         3.04225898521224   -2.88218450749478   -1.73206219419313
C         4.85550200907330   -1.03987137145013    0.24824661752415
C         5.44329732830010    0.21512512969901    0.45812519903514
O         6.68660217172024    0.34249290411583    1.02943060399102
C         7.42952468799418   -0.81763098779457    1.38813997950454
C         8.01903042769397   -1.57682396180195    0.22091633344710
O         8.26189031227598   -2.78182801641215    0.22018551673432
C         4.72425348754240    1.36622763858032    0.12720992429297
C         5.27646736339304    2.67147598418777    0.39532517157810
C         5.67887448165448    3.74960214192779    0.71420479762424
C         3.33484538243463    1.27629526607056   -0.06985676688727
O         2.64950267058408    2.46872590394712   -0.15978777227646
H         0.76533824806831   -0.52041971422598    0.34105209243255
H         0.92697586911557   -0.50851188696616   -1.42695804473453
H         0.97277526194082    1.07604529287213   -0.45218310698798
H         2.03567941703569   -2.76853622497696    0.00372862628655
H         3.81729825699895   -3.17147398047519    0.17266836171715
H         3.91882048254761   -3.00885988223984   -2.13353916491089
H         5.47436225422213   -1.91384258344801    0.41110130386102
H         6.83735004205278   -1.45146087470266    2.05185049304784
H         8.31901863129423   -0.37866365489764    1.85319544801408
H         8.19611517767603   -0.95439404409091   -0.67250529384574
H         5.72617324974534    4.76760106943721    1.03489667471598
H         3.34656730359057    3.08633996818090    0.11818602681185
