28
 energy: -47.953790152635 gnorm: 0.135137124104 xtb: 6.4.1 (79825abcba525fcdf90b791dcacef51065a7a4e7)
C         1.28293069781919   -0.01183582386642   -0.59534857910698
C         2.76997201519160   -0.04000455435710   -0.31742288377581
C         3.46519671080784   -1.23262921757179   -0.00368135208608
C         2.88201795142635   -2.55401028539417   -0.47706305881063
O         2.47702865305285   -2.68138409551352   -1.83973425615181
C         4.83868608992009   -1.10885630639333    0.32886691251829
C         5.47827997813427    0.10125530746011    0.63072468706274
O         6.76332937200868    0.38322907701173    1.02766071116446
C         7.58022870062343   -0.71625592112214    1.41534867462647
C         8.14058561907515   -1.51608119201890    0.26097365247961
O         8.59891878237675   -2.63945615074879    0.45839615363375
C         4.72990470501006    1.26508821575389    0.43838805493924
C         5.24917974441455    2.60247516833895    0.58754830679501
C         5.58207798306857    3.74855554315473    0.54692488422351
C         3.40335163101466    1.19290399984103   -0.02250715173558
O         2.67218310163758    2.33721109159088   -0.25836074826731
H         0.68213176647538   -0.42806749007663    0.21293667501683
H         1.24582966218356   -0.67808351900251   -1.46848041010616
H         1.00714730970840    0.96987221137447   -0.99797705323691
H         1.94958747580518   -2.73489920517190    0.04386021671620
H         3.65239216347998   -3.27370501132773   -0.16931932563182
H         3.31952291775492   -2.70617078272559   -2.32468734941709
H         5.41978784926421   -2.00729525330877    0.49757832493726
H         7.12515633563557   -1.35405420354638    2.17629892099903
H         8.39487218142544   -0.15761298226397    1.88910225062324
H         8.22151542976147   -0.93213671570631   -0.67146370764317
H         6.02826419014591    4.71820575558897    0.50111432971213
H         3.26321308652448    3.10730269323815   -0.21084079145995
