28
 energy: -47.950279400584 gnorm: 0.125186423278 xtb: 6.4.1 (79825abcba525fcdf90b791dcacef51065a7a4e7)
C         1.44101583982622   -0.19756170405153   -1.01558640302664
C         2.86296730390990   -0.00216096924013   -0.53683737945381
C         3.55240387305546   -1.14433751656751   -0.06330315316967
C         2.90159975484212   -2.51709649898982   -0.11044562114362
O         2.70385668042582   -2.92056135922238   -1.46515112512467
C         4.82252982936679   -0.98120174515244    0.54706389824078
C         5.45974808468065    0.25307245420616    0.73438362363360
O         6.71018807307651    0.35672900298291    1.29480713291092
C         7.49463135183035   -0.83035681496343    1.33918883494754
C         7.79646093503201   -1.27405812566374   -0.07443419929006
O         8.43320300720370   -2.28560893048916   -0.36138495017428
C         4.67158292941533    1.35582709583923    0.39630988862330
C         5.24025654335130    2.59791495057551    0.85926483862329
C         5.91360750041673    3.54373214121650    1.13854973991449
C         3.44374646313635    1.26532638750925   -0.28310546417671
O         2.66915964185470    2.38654405565590   -0.48940438165142
H         1.15999816217760    0.53461941934925   -1.77220590780282
H         0.79272301559051   -0.03410916530506   -0.14345031868261
H         1.41394925075563   -1.24078210405834   -1.35155579172776
H         1.87594040728964   -2.60119085055380    0.22787300376061
H         3.55211198094149   -3.25770182167828    0.37378648068579
H         3.51949514150431   -3.33246331824927   -1.79780882546900
H         5.28777553217236   -1.93586783380052    0.76035813806296
H         6.95158551170323   -1.54432549120924    1.96230417786333
H         8.41362971800120   -0.64423949127701    1.90573161992526
H         7.43275183935430   -0.63551242445819   -0.89720713131459
H         6.16757397316519    4.51897453436898    1.49324056455149
H         3.12714905153419    3.12957043984574   -0.06188460676987
