28
 energy: -47.951751913205 gnorm: 0.116181841106 xtb: 6.4.1 (79825abcba525fcdf90b791dcacef51065a7a4e7)
C         1.60373398125515   -0.16679666569163   -1.13059854297485
C         2.87443391169507    0.01015122105878   -0.32851427502193
C         3.51036751431379   -1.15261532299066    0.16916748493251
C         2.83605101361279   -2.49936809049128   -0.03525824994397
O         2.98433276673954   -2.95474942258035   -1.37978552035783
C         4.87931860628940   -1.10961301178494    0.53863314848735
C         5.44511348832346    0.15560952298076    0.74757493412511
O         6.70147242593739    0.35245575412018    1.26837542106672
C         7.45686626340209   -0.85363910151332    1.30314736747166
C         7.75684983749589   -1.34614838634963   -0.09461745355832
O         8.03997603043735   -2.47411790379263   -0.49278897132536
C         4.70254446545948    1.33439742762909    0.64453958042256
C         5.25501005914872    2.66407640634191    0.72959708889470
C         5.74290100987644    3.75377199403784    0.75190547885789
C         3.42756923696296    1.25675127120122    0.05650280372322
O         2.73251836301617    2.37430260545358   -0.35295580346932
H         0.73922412191831   -0.39926272819710   -0.50921666486303
H         1.60942355638580   -0.96203295972374   -1.88901038814659
H         1.33639121757096    0.69337897307183   -1.75553257553048
H         1.77760724719082   -2.39334177151207    0.16959209990627
H         3.24404845051283   -3.20611199430607    0.69972084898009
H         3.89688161170554   -2.97069331751934   -1.71533114338457
H         5.45258974740257   -2.02561223630589    0.61373943494471
H         6.92504919084714   -1.61532307728706    1.87754349319833
H         8.43776527310799   -0.60670627448118    1.72389633818375
H         7.83264020555210   -0.51282360427436   -0.81350954904126
H         5.93244333082228    4.80384721736646    0.69882060437277
H         3.07270999163389    3.17609264192111    0.07834230160318
