28
 energy: -47.952117772337 gnorm: 0.121155810509 xtb: 6.4.1 (79825abcba525fcdf90b791dcacef51065a7a4e7)
C         1.04429460231679    0.10740105742794    0.20280884179281
C         2.50499985960145   -0.00374502038508   -0.17576049558726
C         3.23039672487809   -1.21073522478509   -0.32101451711208
C         2.42606794967965   -2.47097773984496   -0.59502118129257
O         2.94179735493540   -3.63170283645375    0.05601925168020
C         4.64560788966839   -1.30696152212061   -0.30372275494014
C         5.37389893878915   -0.11380359051778   -0.20108328501740
O         6.73382752063240    0.03608120611384   -0.32972288840633
C         7.57914477149584   -1.07702176015787   -0.05965945149976
C         8.53479820063635   -0.52326602079516    0.97299883610197
O         9.45236677829603   -1.15641277537764    1.49088813262015
C         4.67594400535860    1.07352115785018    0.03276451600049
C         5.32803120653607    2.35362835194505    0.16163284255663
C         5.90350345317355    3.39994657932031    0.15698789916564
C         3.27500176562839    1.17703936380906   -0.03066115041884
O         2.65871641801749    2.40396575265869    0.08982556516212
H         1.03051818265411   -0.29011190388214    1.21736631625857
H         0.38899931044462   -0.43121494905503   -0.49583451621939
H         0.85684259425389    1.17788925135275    0.34714734938653
H         2.37124553579575   -2.65124102656896   -1.66179580562097
H         1.40779045805566   -2.39913467640214   -0.18993767134783
H         3.31654935567704   -3.39491834025130    0.92151593461669
H         5.18193625009196   -2.22423527051922   -0.51418910826248
H         8.15042633794986   -1.22982135536836   -0.97792544842984
H         7.05739155922926   -1.99345843380799    0.23713305064061
H         8.34348099250814    0.53530111918396    1.21756693069099
H         6.41033120361938    4.29370822961519    0.44976428676520
H         3.33763686862134    3.09891644666187    0.11677398626799
