28
 energy: -47.948030648597 gnorm: 0.117242014865 xtb: 6.4.1 (79825abcba525fcdf90b791dcacef51065a7a4e7)
C         1.11749998574607    0.06249826311256   -0.49255401603223
C         2.60182007386289    0.01314048470668   -0.20326916939697
C         3.47929809365173   -0.97107297277673   -0.71851754921139
C         2.78863730024166   -2.17621168487280   -1.33565933385770
O         3.61352248357250   -3.17772227634123   -1.93034763974663
C         4.89224680409978   -0.88978291423172   -0.62182723222458
C         5.39872800094466    0.16283354788113    0.15279780682385
O         6.72458430513154    0.43563903647664    0.38965553491950
C         7.68516429873817   -0.41154507622528   -0.23168083622724
C         8.08205855904816   -1.58085800701617    0.64094981131443
O         9.18325342845014   -2.01947338092362    0.96653028185206
C         4.55362373596077    1.08476201640876    0.77522261054229
C         5.04292316184100    2.17186685285930    1.58718834119426
C         5.29359431489928    3.06619930197181    2.33772492534112
C         3.16115802242725    1.05172875995110    0.58202311432886
O         2.41460215686521    2.10836677812695    1.05725304486713
H         0.73638059071088    1.07892035760634   -0.39680779643252
H         0.57127229416932   -0.68853856064359    0.09498378023584
H         1.02972105486589   -0.23295355060352   -1.54465663384305
H         2.07180839350299   -1.90137572280960   -2.09994328715135
H         2.34408564811006   -2.65264685839903   -0.45161946721027
H         4.41979254897148   -2.65427921275966   -2.07706645237025
H         5.55327569882735   -1.54283034173119   -1.17851851603141
H         8.59603903103838    0.16519922393070   -0.40659801502442
H         7.32868674186922   -0.77139163933906   -1.20307292185430
H         7.24043470438590   -2.17913526829125    1.02916859233733
H         5.62032400142090    3.69289606827382    3.13891226026125
H         3.02028450627180    2.86217596323847    1.15490685879424
