28
 energy: -47.953478616597 gnorm: 0.120616540634 xtb: 6.4.1 (79825abcba525fcdf90b791dcacef51065a7a4e7)
C         1.16194446673437   -0.02269737368387   -0.75698268235453
C         2.60256403689614   -0.01293276022141   -0.29454571084676
C         3.50844586535779   -1.07702380905632   -0.52084877013144
C         3.13090472363228   -2.05290010579867   -1.62328416111665
O         3.81090524030401   -3.30715124023441   -1.58370376830218
C         4.87390900516977   -1.04829503510103   -0.13735660126994
C         5.34375087263677    0.07382867041498    0.55881550367900
O         6.60198359325011    0.21829514209869    1.09210644414098
C         7.49284421823625   -0.89052584008437    1.03399353335340
C         8.21718133678043   -0.89943285941844   -0.29324361107781
O         9.13771185444854   -1.60695627498439   -0.69703862462275
C         4.50636214154476    1.16247433415913    0.81415195619699
C         5.06204706319208    2.30985467184433    1.48886065564748
C         5.38268478976939    3.25979646038207    2.13753142559105
C         3.14930652894684    1.05314409361369    0.46226425184535
O         2.17502269933259    1.95143721001975    0.84109607106261
H         0.84909463492279    1.00518379345516   -0.57499778232560
H         0.54298019595405   -0.59020308176625   -0.04815113076422
H         1.07327648347092   -0.28011633228747   -1.81895739855141
H         3.45445948724427   -1.60818581589283   -2.55658474077610
H         2.05054876029771   -2.24883200199398   -1.59910117904146
H         3.57642171603148   -3.82524529123659   -0.79491577437761
H         5.51172012721078   -1.90866387395374   -0.29952248174691
H         7.04507137497937   -1.88227737148887    1.12807416647534
H         8.20620135097632   -0.70384592100802    1.84420374865746
H         7.80218576930387   -0.12521937237475   -0.96059087626887
H         5.84494192120994    4.08332010241029    2.63706063055595
H         2.41005030602187    2.80892839332118    1.23363467106076
