28
 energy: -47.955514407582 gnorm: 0.116365973776 xtb: 6.4.1 (79825abcba525fcdf90b791dcacef51065a7a4e7)
C         1.33356277057612   -0.19602977994291   -0.62782619234775
C         2.80784545379974   -0.05381752404530   -0.31864295912980
C         3.69712344268950   -1.15316696286732   -0.38749174638250
C         3.19929392077845   -2.53240091277623   -0.78763559190930
O         2.43127860275261   -3.23961423745418    0.18556273926397
C         5.06131224883186   -0.93500734213625   -0.06534825594812
C         5.57320555271277    0.32723716980581    0.26521583021102
O         6.90236338217448    0.55886981266798    0.52618544073492
C         7.71372744897079   -0.58010356527012    0.79249677310850
C         7.91642607119849   -1.56828173398520   -0.33387758968242
O         8.48894754062333   -2.64272939644374   -0.16417898198185
C         4.64860690179888    1.37258692527072    0.32788310257897
C         5.21941563321543    2.58211368880681    0.86799569000178
C         5.61496661987431    3.62576279913576    1.29262220442591
C         3.27804208788263    1.23220531679313    0.04641714259300
O         2.50956212181145    2.37018503230130    0.16521843377742
H         0.90930369611119   -1.17577993987466   -0.84606244313665
H         1.01432386034625    0.45351123759717   -1.45475100508871
H         0.74554359035118    0.22273515697992    0.19727149848286
H         4.11348341903218   -3.10498488951309   -0.88720267394943
H         2.67015870529836   -2.38782202119456   -1.73908500994281
H         1.67272445930045   -2.68212749078955    0.42927282585659
H         5.68841483985479   -1.81822552276613   -0.06717004177435
H         7.37381166162193   -1.01459038826438    1.73515325512917
H         8.70068797640038   -0.17367034876929    1.03925442932971
H         7.51834333161432   -1.24695948105642   -1.31125282864351
H         5.58927397434764    4.55325965520533    1.82223691849558
H         3.04543382788901    3.13698436660897    0.42880135322456
