28
 energy: -47.950246316973 gnorm: 0.109630523984 xtb: 6.4.1 (79825abcba525fcdf90b791dcacef51065a7a4e7)
C         1.03722648221915    0.06920470568854   -0.44091793518902
C         2.47652983720220   -0.06490301483304    0.00601496575377
C         3.23753268987615   -1.25266355223526    0.12528050963703
C         2.43926949600932   -2.54415390705316    0.19644347673363
O         2.67596918612351   -3.38789947883621   -0.93013536376180
C         4.65592233107089   -1.26959208836554    0.14157168468497
C         5.35944709750043   -0.05803425693863    0.09974943877064
O         6.71642824651477    0.11446612933727    0.23114629674799
C         7.55273378472522   -1.02712276205905    0.38561823253511
C         8.95748587180691   -0.67915921052107    0.82367641509137
O         9.96983778607986   -1.09806313447314    0.26629025271331
C         4.59377560272834    1.11017978419556    0.12402039775083
C         5.24929701544450    2.38893177573565    0.24885722645785
C         5.92616219907846    3.36995953825441    0.17530602145798
C         3.18919755456907    1.15793962134028    0.07650709851717
O         2.52775519764155    2.36560717539235    0.13738517409817
H         0.75739113696898    1.08309509998570   -0.15587116472489
H         0.33674924082094   -0.68866333328590   -0.06330790799140
H         1.11017853960916    0.01017839946422   -1.53321401484907
H         1.38070163343866   -2.46541225493654    0.41264310247948
H         2.73308219451973   -3.24040843307077    0.99334175061335
H         2.25382840930017   -3.01549968308660   -1.72304521028199
H         5.15467367786427   -2.23075015467578    0.11404720368580
H         7.64127136422737   -1.46096810205843   -0.61281158647817
H         7.10701822259519   -1.76756246017508    1.05886044175311
H         8.96710951391248    0.10391256522172    1.60064886980887
H         6.44651688164869    4.30274239030906    0.19874591759248
H         3.09243168345574    3.10621429014521    0.41533702081762
