28
 energy: -47.949998605588 gnorm: 0.117340021096 xtb: 6.4.1 (79825abcba525fcdf90b791dcacef51065a7a4e7)
C         1.33628888730049   -0.00428990794795   -0.72923269902964
C         2.77192348463091   -0.08701301935764   -0.25866047731221
C         3.61055815105013   -1.22277789187396   -0.15447439426839
C         3.07032982147518   -2.62310145875386   -0.39423026506851
O         2.53539463063730   -2.85518896141992   -1.69695546317086
C         4.97574478352805   -0.97860421875297    0.14389754621856
C         5.59721356456297    0.25052006383453    0.40389488364917
O         6.93814439660834    0.39413263597811    0.66790108465667
C         7.63944499782781   -0.64203382300390    1.34689317739891
C         8.23741308848948   -1.71116906220942    0.46050385461221
O         8.00294655386333   -2.90830874890898    0.61182551212764
C         4.74288839648330    1.35400207742105    0.34047646404575
C         5.19864611837224    2.71569097421210    0.47681219264833
C         5.41778319573904    3.87748108231077    0.64472407158475
C         3.37800164388597    1.15115069004385    0.06971188037260
O         2.59039699710895    2.28204045197563    0.04872801284435
H         0.63920550381514   -0.51404970067617   -0.06458774539842
H         1.26119792625007   -0.58719805087648   -1.65778054805563
H         0.87452104506821    0.98214717377091   -0.85424935732068
H         2.30431802804954   -2.77719302295350    0.35609644584663
H         3.86030602500346   -3.34539626746838   -0.14852529653892
H         2.84450551802665   -2.08393229383018   -2.20213273953209
H         5.61050463445500   -1.85301548597448    0.22018777991948
H         6.96860863692803   -1.03494755735934    2.11404385251963
H         8.45941906231688   -0.00324825043502    1.69296240559000
H         8.75368449296514   -1.31699958317183   -0.43116563244294
H         5.68987860332563    4.89631338968237    0.47341415479926
H         3.09850102500909    3.05981178936360    0.33424107161261
