28
 energy: -47.952406158800 gnorm: 0.118840358169 xtb: 6.4.1 (79825abcba525fcdf90b791dcacef51065a7a4e7)
C         1.07843407882256   -0.12460596648738   -0.30775679830640
C         2.57963401864537    0.04533607492794   -0.22501333317732
C         3.48745368924274   -0.90177062923361   -0.75696919680026
C         3.01722215704536   -2.06453874036474   -1.61550764191674
O         4.06085800170004   -3.03323453741359   -1.71331304043992
C         4.87828058380255   -0.84681680994020   -0.48317769486066
C         5.41661682241263    0.28534082601157    0.14370487704664
O         6.73759670749827    0.49696265805823    0.45778719133211
C         7.77115373495548   -0.36084394307155   -0.01382857784680
C         7.69003819171554   -1.73679337335174    0.60785097374248
O         8.74987745698584   -2.32215182996271    0.82024786479586
C         4.53277636741970    1.22649969187183    0.67719527307164
C         5.07739847101790    2.36850173505214    1.36981154455793
C         5.47341030277457    3.33776665911387    1.94398212671905
C         3.13913666291448    1.06027588333864    0.59050030523993
O         2.30381509165501    1.92128386512461    1.26915793364302
H         0.64774738867633    0.78581603306066    0.10838496682648
H         0.76454700634174   -0.89012653796948    0.41548232188577
H         0.64982563885248   -0.33135959689107   -1.29541289546560
H         2.82833014455936   -1.69867980743863   -2.61749342067371
H         2.16463082568181   -2.52567901031596   -1.09919300571585
H         4.15801516278676   -3.35615989154120   -2.62538221006937
H         5.51091988362910   -1.58527093201235   -0.96044948396334
H         8.74502849609311    0.13271851688552    0.01595113844975
H         7.66669212955360   -0.54381555793230   -1.08889952560092
H         6.68485089960641   -2.08813787334957    0.89618370853043
H         6.00755700648400    3.97836138811355    2.61161073943073
H         2.90468019009764    2.31786133610363    1.92207684915021
