28
 energy: -47.955775145731 gnorm: 0.110216299455 xtb: 6.4.1 (79825abcba525fcdf90b791dcacef51065a7a4e7)
C         0.94590269435945    0.00993006411441    0.21579179857070
C         2.45719937521048   -0.05136543923229    0.17638060971806
C         3.16291059738512   -1.27482833311993    0.08028211983157
C         2.50692299001204   -2.60918193992618   -0.23502144686065
O         3.00020137432251   -3.27441213503722   -1.39745786879012
C         4.58048169143675   -1.23359552841519    0.04602999486076
C         5.34217976490336   -0.05795659519432    0.09354551622910
O         6.69285057702046    0.10336447154102   -0.10160373367560
C         7.48257281571750   -1.00186553918961    0.32418863678427
C         8.91593965547157   -0.58082034055022    0.55760345266457
O         9.87276690562842   -1.27472567153160    0.89523229505360
C         4.60274445378266    1.12622717622193    0.14364726951628
C         5.32266305162387    2.37489453189413    0.19884017557201
C         6.02392796063950    3.33643489209957    0.29702056393203
C         3.19698211679165    1.15720573317914    0.15947690497182
O         2.46667327069561    2.32606359226041    0.16913828140980
H         0.51589764475570   -0.97231596390267    0.41026957222275
H         0.56450754242149    0.40265779109854   -0.73705883834580
H         0.61799783222688    0.77699348267940    0.92713485421109
H         1.45300909914653   -2.40052546610845   -0.37371693587257
H         2.52139801008100   -3.30000309510103    0.61861766403642
H         2.90330027425677   -2.65206794370588   -2.13832786597884
H         4.98287292190528   -2.23210907562530    0.16597720025317
H         7.53366805259150   -1.81961010079471   -0.39803424685677
H         7.07554494674707   -1.37480324172911    1.27045190217667
H         9.11205214349256    0.47082250251905    0.28822000999828
H         6.46479760815799    4.29985280495199    0.43436011568365
H         3.06873922476713    3.00979007042503    0.50773886430460
