28
 energy: -47.950363760565 gnorm: 0.108255926185 xtb: 6.4.1 (79825abcba525fcdf90b791dcacef51065a7a4e7)
C         1.12772811935305    0.22007049231981   -0.52805337860421
C         2.57212114216856   -0.13526636051821   -0.25093868591063
C         3.30160914813845   -1.31977190140491   -0.51346214328166
C         2.56627942346928   -2.63529888226383   -0.71072991260859
O         1.84365755028613   -3.13306736241950    0.41495093820132
C         4.71425649390064   -1.21273266206649   -0.44031012006720
C         5.40893485321657   -0.04293517020686   -0.10331698838519
O         6.76649696737235    0.16814746006528   -0.07350785469491
C         7.64988504222432   -0.94812108981026   -0.08149304621438
C         9.02121887268422   -0.34683380721141    0.12874292475572
O        10.06094593506265   -0.77545587922860   -0.36751002088743
C         4.68648811004685    1.05121156358173    0.37884438480340
C         5.33602511329344    2.12879481113251    1.08412107865306
C         5.83824420262102    2.84463201543745    1.89733986774864
C         3.28826251613389    0.98186178101115    0.24642915351899
O         2.52266972436300    2.07285300265744    0.59754008789335
H         1.17423381164592    0.93971735916609   -1.34504714741177
H         0.65657122978609    0.68348053920159    0.34994660851972
H         0.48895666505473   -0.59874226371236   -0.87938445513934
H         3.27562981943097   -3.45031703975361   -0.78867776625056
H         1.87419669263236   -2.53071067233420   -1.55703123205072
H         1.16466674749432   -2.50104308176697    0.70668243396869
H         5.32132300082195   -2.10008997150556   -0.57222900960824
H         7.54840640655491   -1.45995963102769   -1.04099613607329
H         7.46918608782756   -1.68430540111506    0.70942346574633
H         9.03401021351294    0.67310294566087    0.54891624450061
H         6.10915855531848    3.61598308921377    2.58510814470286
H         3.13772635081970    2.64292478139377    1.08880293014318
