28
 energy: -47.956638577295 gnorm: 0.116310095212 xtb: 6.4.1 (79825abcba525fcdf90b791dcacef51065a7a4e7)
C         1.32534909038874   -0.10648617445812   -0.51605692527245
C         2.78415081763716   -0.06446309171421   -0.11673295649335
C         3.64143243587271   -1.19015464831275   -0.16158221365137
C         3.11505614633868   -2.59752533856023   -0.39064854104088
O         3.07604979776470   -2.85237908069702   -1.79444385949973
C         5.03162720507710   -1.03138331252468    0.07193724485194
C         5.50979924044714    0.26033754468114    0.33150866453809
O         6.86617855972587    0.43546242959378    0.46561976309989
C         7.52568449817122   -0.58818059229247    1.20298033904246
C         8.05587915568188   -1.71552286611105    0.34607015842473
O         8.03302857396536   -2.89318050714045    0.69766162945321
C         4.67544652884462    1.38076812615902    0.33904732174318
C         5.23767198628343    2.67699117870891    0.62923267608543
C         5.56796444344296    3.82250950525696    0.69754360207667
C         3.30444326827801    1.24191988589936    0.05895941974858
O         2.48761888523623    2.34726888585492   -0.04435836288018
H         0.86233791143354    0.80149658982409   -0.13041309979295
H         0.73434822667374   -0.91139524765159   -0.05729660970367
H         1.18408894315806   -0.17946503841228   -1.60078568687383
H         2.13488752818918   -2.77690405271049    0.03432346652322
H         3.84909576544331   -3.29077867255284    0.04147271941518
H         2.40674537028394   -2.25229607696449   -2.16528404214722
H         5.61031807690930   -1.92279640609506    0.28130512405567
H         6.86370216619649   -0.92551200977774    2.00354869586331
H         8.47112457055377   -0.11320134589881    1.48706865328602
H         8.48840780389335   -1.45982568125415   -0.63602868337522
H         5.90590945026076    4.73677735514315    1.13493329908356
H         2.87550603869166    3.19133768115060    0.24148614856744
