28
 energy: -47.951720603704 gnorm: 0.116038739456 xtb: 6.4.1 (79825abcba525fcdf90b791dcacef51065a7a4e7)
C         1.22973942776308   -0.17240715311425   -0.32702663290753
C         2.73451658497881   -0.06348516534886   -0.21252877694112
C         3.53928569375230   -1.22704015650934   -0.16142908034060
C         2.94395763339981   -2.58757278615124   -0.48511272482077
O         2.79957235066291   -2.73247477871335   -1.89765282023623
C         4.93989563634044   -1.06246384800162   -0.00784655557377
C         5.49057332929105    0.16816759176420    0.37538825861504
O         6.80372752091240    0.38553044472459    0.71714668308436
C         7.46443572656671   -0.61801903029184    1.48059075480617
C         8.14224275312976   -1.47962484533304    0.43919021250486
O         8.44796790521672   -2.66543946791715    0.54592372824498
C         4.69552886686555    1.30770616568082    0.23074348126416
C         5.24445179104386    2.61819035869385    0.47936772275035
C         5.87747814783648    3.62537970126925    0.58338207748716
C         3.33106147788394    1.21673589779750   -0.09687087213497
O         2.48594189543838    2.30037007243317    0.00887846433479
H         0.78834195843146    0.80145332418086   -0.11655750046797
H         0.84151623163410   -0.81193586414304    0.47790034801113
H         0.99615925983770   -0.57223809364167   -1.32075313295720
H         1.96930019679632   -2.62522341622850   -0.01380203683360
H         3.61295084593989   -3.39044290113057   -0.14748750574886
H         2.96763210286599   -1.83094955307325   -2.22106997532098
H         5.59226529678171   -1.91846930596327   -0.13033663932572
H         6.87793141118009   -1.29658428551617    2.10387613604101
H         8.13519020037423   -0.18225737733369    2.22916847266367
H         8.50840201927930   -0.94382151210364   -0.45289857059227
H         6.27268381777091    4.60920345459784    0.71493272939835
H         2.95116673710724    3.14618716243622   -0.10414789963134
