28
 energy: -47.948358525596 gnorm: 0.126601239800 xtb: 6.4.1 (79825abcba525fcdf90b791dcacef51065a7a4e7)
C         1.20487837031118    0.11783845044957   -0.57235823222331
C         2.69907649983787    0.08941021508173   -0.33594369481623
C         3.51485223586232   -0.92255705602563   -0.89679741961050
C         2.78446641294246   -1.97515762109446   -1.71460193946810
O         3.61592456683165   -3.10047903979421   -1.99645697141479
C         4.85411749832608   -1.01020168582494   -0.43737589807471
C         5.34349917339285    0.11503539959398    0.24005723357038
O         6.67492922072305    0.33426831287344    0.50015398629614
C         7.75612535263647   -0.45597063596802    0.01742108470321
C         8.20061071474931   -1.57088678850753    0.93703881181956
O         9.10553335270875   -2.30669266890210    0.54881084360648
C         4.57966313332121    1.11821359443461    0.84151710086218
C         5.07917194113139    2.33312645172235    1.43731647797956
C         5.14456676877186    3.38863851344776    1.99192401947796
C         3.19681193602101    1.02643259425555    0.60344814096899
O         2.35165467994930    1.80796914489834    1.36146059869185
H         0.62539177303197    0.80509666479593    0.04360007544387
H         0.85907606010952   -0.89994734457144   -0.34398461978871
H         1.00127965495128    0.29985429795691   -1.63411838676078
H         2.48686073036343   -1.64107224707091   -2.70117493222238
H         1.93276923942915   -2.27020466570721   -1.08714493202462
H         3.88508434204436   -3.60603863178099   -1.21061157829671
H         5.50207523967661   -1.81321121887738   -0.76701476850507
H         8.59136005149891    0.22922778632536   -0.14323041696873
H         7.45111636945356   -0.81959878439298   -0.96995547527009
H         7.85203488163992   -1.47735657204187    1.97950089854333
H         5.42954541769036    4.30537037658585    2.46074395458462
H         2.88320190219131    2.49791960454310    1.79278597211204
