28
 energy: -47.954977180092 gnorm: 0.115208351427 xtb: 6.4.1 (79825abcba525fcdf90b791dcacef51065a7a4e7)
C         1.31255445177095    0.12459979189747   -0.88108553052788
C         2.72186213016801    0.02482723940634   -0.33958267335668
C         3.54730762249903   -1.09452233547618   -0.60381924366806
C         3.01148063379668   -2.33682846236306   -1.29649561227357
O         3.95807052570453   -3.39346169516734   -1.13962941336815
C         4.82290852110613   -1.09141970471260    0.01683676301788
C         5.27025684706493    0.07606056249926    0.65042801150690
O         6.51078396006201    0.03116247864403    1.23991592123344
C         7.50576075691141   -0.95869624661060    1.00180964510321
C         8.04025501114573   -0.95523695043298   -0.41261813770959
O         9.10118804632145   -1.47055488372187   -0.75886191231741
C         4.49745399188380    1.22474662819143    0.83714173542606
C         5.06575673811918    2.42552236206476    1.39898584383666
C         5.28361379495887    3.52200849014136    1.81878125010883
C         3.14779459521470    1.11626834359029    0.45762893995619
O         2.29165724347847    2.14321938458901    0.79240265066149
H         1.31231113504608    0.66869350999504   -1.82527575208000
H         0.69173089611674    0.63972915860768   -0.13486738939273
H         0.88797705800808   -0.85689207830646   -1.12259034193757
H         2.89864586352832   -2.19407952294193   -2.36439050621738
H         2.04485746247392   -2.62279114499642   -0.86059640891498
H         3.58902286926835   -4.21289854917219   -1.51100191890337
H         5.44486793858067   -1.95037329893297   -0.20384521979450
H         7.33600059522821   -1.97061807975996    1.37613366297345
H         8.39608790991599   -0.64689605237617    1.55882542692757
H         7.40520399904178   -0.43486728774661   -1.14943958208040
H         5.64357669742499    4.47161357923687    2.15056302861451
H         2.78775431063578    2.94855558624794    1.01586844915997
