28
 energy: -47.956738885629 gnorm: 0.111373108857 xtb: 6.4.1 (79825abcba525fcdf90b791dcacef51065a7a4e7)
C         1.49252323356129    0.08469298928508   -1.04534254006996
C         2.83909452847022   -0.02123800431634   -0.36354168306875
C         3.61857559646303   -1.18528693102882   -0.15976713913860
C         3.04655052285730   -2.48852483094839   -0.69324058894424
O         3.29696287084142   -2.73641362944902   -2.07633784255233
C         4.87356823411700   -1.15077972938711    0.50067504925347
C         5.45126582279783    0.06633505424404    0.88728295767255
O         6.77567250940153    0.34478160687320    1.12568137278301
C         7.66330375470145   -0.75969579242486    1.26255423224712
C         7.76573663754065   -1.36983645523148   -0.11713338123643
O         7.96615883807323   -2.54128591675075   -0.43106543047839
C         4.67601170164913    1.22105184209290    0.75622514522920
C         5.09730716726703    2.51054043078261    1.24635626191910
C         5.23169403009222    3.65649743215012    1.55408088413781
C         3.39315758090641    1.16291803701615    0.18326461554312
O         2.60002589998494    2.27646201806228    0.00823606016047
H         0.70955055604990   -0.03061657967812   -0.29621591743847
H         1.38895582863674   -0.68361596214189   -1.82418579213543
H         1.39147946198897    1.06603081952895   -1.52355070517989
H         1.97144165505431   -2.56432072371977   -0.58413351250031
H         3.47289290778791   -3.34032768084210   -0.14660798612305
H         4.18146736668609   -3.13903195931761   -2.11011277057754
H         5.49983789125898   -2.03205693306497    0.43380097528904
H         7.37751091915295   -1.47211458720905    2.03953859543961
H         8.54376918229965   -0.26228749839272    1.68390207481390
H         7.54454851904423   -0.55284103254140   -0.82464628768394
H         5.39542093436547    4.69592896673880    1.73895342325880
H         3.08467302239724    3.07462692788859    0.27780164794755
