28
 energy: -47.948641660425 gnorm: 0.120806145784 xtb: 6.4.1 (79825abcba525fcdf90b791dcacef51065a7a4e7)
C         1.24308299352307   -0.00771171613128    0.68045902443388
C         2.71653975663272   -0.05573615126738    0.33994932057982
C         3.41484233630162   -1.26834699682681    0.12530273782652
C         2.68330066289808   -2.59969144636427    0.07426964792653
O         2.86761225351902   -3.30160713836395   -1.15473678663388
C         4.76758569615278   -1.27748520620253   -0.30176056179141
C         5.47080699290176   -0.08085386764173   -0.49700870367271
O         6.79547580291609    0.06850390464467   -0.83072141372970
C         7.63242872047427   -0.92749238934320   -0.25279846343970
C         7.74715320805505   -0.64019892668820    1.22727004676101
O         8.52029724422769   -1.18643361394268    2.01142066837658
C         4.84560574872538    1.12617542054368   -0.17487567272724
C         5.69956917648010    2.28694370295832   -0.23702613217159
C         5.96064233603517    3.45028882840806   -0.30366444870091
C         3.49614558351293    1.12161378910722    0.22049055801107
O         2.75952750948269    2.27774741391058    0.36339580770467
H         1.07172598009525   -0.73438593237794    1.47425658491185
H         0.56694527403500   -0.15797001055859   -0.17270091971792
H         1.01052267115396    0.95001525475078    1.16065854088432
H         1.62058896813927   -2.39883995200802    0.13600281365101
H         3.03209074139416   -3.29533244461105    0.84923559009506
H         2.48624433317637   -2.72959795470133   -1.84245364105758
H         5.15855133451007   -2.27442895431760   -0.46480770455059
H         8.60913307283227   -0.58989462484931   -0.60635064732679
H         7.41308037135950   -1.92639747966301   -0.64553667940463
H         7.12384581756670    0.19802290438159    1.58202669066583
H         6.37369561698765    4.36713515241262   -0.66447199932291
H         3.29063573912332    3.09157357534158    0.34833961967956
