28
 energy: -47.954386227552 gnorm: 0.113243738672 xtb: 6.4.1 (79825abcba525fcdf90b791dcacef51065a7a4e7)
C         1.19262496995405    0.02767636783318   -0.70952180726082
C         2.65272736839735   -0.06473323203246   -0.32365980244014
C         3.56855765278132   -1.08277348563198   -0.68278877889204
C         3.14997349366321   -2.16985061697053   -1.65915255958707
O         3.85791114010953   -3.39523958794736   -1.47378975185742
C         4.90664429691047   -0.99542554498628   -0.21988963539440
C         5.28535613285412    0.01283729915897    0.67707856571139
O         6.52011946314350    0.14619421117798    1.26529180119515
C         7.50952824499748   -0.84138499898923    0.99649578918560
C         8.20539133845026   -0.72862268619963   -0.34117429228296
O         8.91794477725260   -1.61386823810679   -0.80981502849062
C         4.40825086702745    1.05677079608756    0.98114298092550
C         4.90053810555162    2.25241408400896    1.62035311741800
C         5.36252338758877    3.23604896026034    2.11533164804190
C         3.09612010202895    1.01716072587238    0.47703792937720
O         2.38976380515714    2.15338514394274    0.80828995568665
H         1.01739955556283    1.07648174692179   -0.94792596382562
H         0.50998914357573   -0.30197464614180    0.08606615046274
H         1.00358733176734   -0.48569021491790   -1.65959356800326
H         3.48204080880394   -1.85746206592098   -2.64182907885779
H         2.08784357775603   -2.41438923538411   -1.52415614377746
H         3.25909025569839   -3.98153491954847   -0.98057397707109
H         5.60537399532921   -1.78084741863649   -0.48108806545004
H         7.18461187744773   -1.88412583557048    1.00310525916668
H         8.28186773470621   -0.69696111581969    1.75991038020348
H         8.10723386324207    0.24830770178408   -0.84411796993026
H         5.65176576102635    4.16502283680185    2.55663500650616
H         2.91732627225150    2.90451594536599    1.12781463799673
