28
 energy: -47.948562773018 gnorm: 0.113158750653 xtb: 6.4.1 (79825abcba525fcdf90b791dcacef51065a7a4e7)
C         1.14288357807797   -0.06705560346372    0.33026356789471
C         2.64629232918637    0.00299430585725    0.17475412794986
C         3.42440840050395   -1.17957373980636    0.18864337333916
C         2.79057356364838   -2.55827758848192    0.27619182777130
O         3.18928605156812   -3.60008540173645   -0.61418901430715
C         4.82411615310134   -1.08956195578048   -0.02371776377363
C         5.44812159382889    0.14245994352352   -0.26310831806161
O         6.78205180594877    0.22978010953894   -0.58158082782244
C         7.61292609001875   -0.87789470818847   -0.25112938738090
C         8.13442990956356   -0.84870518207965    1.16784339949060
O         8.44995869041746   -1.87863248069232    1.76004908883199
C         4.68937271560923    1.31107552588348   -0.16209482800866
C         5.34183980670947    2.59744955784260   -0.16736223771329
C         5.95697581342697    3.62029792307717   -0.13047544546221
C         3.28660831185103    1.23764179060030   -0.09699862612836
O         2.45283471214906    2.32341444443401   -0.25697481396816
H         0.85465038148555   -1.00681896672114    0.80068854129491
H         0.78712193795397   -0.23934671469893   -0.69510031792509
H         0.72880418483039    0.83052910742198    0.80439094850640
H         1.73190954114595   -2.56518352903152    0.04664609004468
H         2.98668956246118   -2.94225718285122    1.28626178385809
H         3.44621213757472   -3.09763980223980   -1.40610307197386
H         5.40171361347693   -1.98030388494483    0.19144573039717
H         8.47534288846117   -0.84011028029644   -0.92025746856839
H         7.10453240767433   -1.82471376584910   -0.46382146059674
H         8.17360032527071    0.14194535788369    1.65163819307631
H         6.55688565924960    4.50432871461560   -0.13039290793092
H         2.92319572930505    3.16113138843293   -0.10998332505420
