28
 energy: -47.952739067381 gnorm: 0.116687356487 xtb: 6.4.1 (79825abcba525fcdf90b791dcacef51065a7a4e7)
C         1.45582290317162    0.19139625640337   -1.23193759123394
C         2.70704325850138    0.04592870137149   -0.39371635666362
C         3.29107333849523   -1.22084201441329   -0.15220964314340
C         2.68691511336394   -2.57067345978619   -0.50318472834137
O         3.60094180093401   -3.53815668101521   -1.01859198019721
C         4.55561752110413   -1.21902717772268    0.49067903796809
C         5.25391088704522   -0.03884728554398    0.78073137596693
O         6.49972485123689    0.08122436082533    1.34813750932959
C         7.37360608544410   -0.99048694726287    1.01011355340480
C         8.11138216851809   -0.75178548502709   -0.28796583422691
O         9.05621179331031   -1.45737999396459   -0.63502433054502
C         4.61850817298733    1.18847021084190    0.57696406908603
C         5.13818377262696    2.37268534932837    1.21576841063797
C         5.69180743318709    3.41669788229493    1.38755433285496
C         3.32661767759058    1.24967392858503    0.02501203227012
O         2.65154118274640    2.45130204103349    0.01912583576244
H         1.59512298694702    0.90802216697451   -2.04099630059374
H         0.58433498039584    0.53674843855104   -0.65847239533770
H         1.13137736425097   -0.75420208679857   -1.68193280233905
H         1.87713499890738   -2.40397314530266   -1.20316731133224
H         2.32146810972001   -3.05269164919593    0.41346682762805
H         4.11484499282698   -3.18619569852933   -1.76532984741960
H         4.96307058960742   -2.18754856213021    0.75389692103303
H         6.89454073075898   -1.96157359576020    0.86725035957951
H         8.13208060920891   -1.13131656996800    1.78796430844662
H         7.64002889924047    0.06346342690235   -0.86257485237172
H         6.12022202418377    4.34248440765420    1.70501696464634
H         3.32651773047818    2.97299861062414    0.48480278197030
