28
 energy: -47.947270178929 gnorm: 0.118453630583 xtb: 6.4.1 (79825abcba525fcdf90b791dcacef51065a7a4e7)
C         1.01141226897305    0.07668932811049   -0.51866186679325
C         2.50626971065091    0.03927126240469   -0.28773081436850
C         3.41450717594278   -0.88851838142123   -0.85203195571211
C         2.93382637733004   -1.91370373011561   -1.86602238872234
O         4.01200284381425   -2.76349491824584   -2.25653955727913
C         4.74780010929910   -0.95731740272644   -0.37247195144753
C         5.27864721744111    0.10259813260118    0.37542441585723
O         6.54848497084932    0.16994056854603    0.89638163860808
C         7.40500881574053   -0.96307453161314    0.99197142220424
C         8.50498748582255   -1.25882459586947   -0.00245346075018
O         9.53726197242544   -1.87859461046044    0.24515659707180
C         4.43651331197297    1.14720961676710    0.76422164694960
C         4.91671217203629    2.18732157753921    1.64062073191411
C         5.45291407076955    3.01077832744938    2.31913250104024
C         3.05417226981186    1.06751381268328    0.51894666715576
O         2.16847579341296    1.90329328212235    1.16446001262764
H         0.56015210256340    0.95859005611147   -0.06462599421809
H         0.44496751720874   -0.75863439554359   -0.08392484253306
H         0.92707726995519    0.02207536752540   -1.61036775986235
H         2.39100504802380   -1.43177420836140   -2.67013518497037
H         2.26169819721440   -2.61997058705403   -1.36047915148477
H         4.68958854272903   -2.17549111211226   -2.63166568691343
H         5.41410108765289   -1.77899855561306   -0.60532044109590
H         6.87198935057650   -1.91544446351712    1.03445134688424
H         7.95707037055195   -0.94338794886198    1.93802050024437
H         8.19491007335201   -1.13499916282556   -1.05388081172953
H         6.04820010028160    3.83733557499734    2.64137453574367
H         2.75345075350886    2.58008307424312    1.54442782661729
