28
 energy: -47.947811183875 gnorm: 0.119320445778 xtb: 6.4.1 (79825abcba525fcdf90b791dcacef51065a7a4e7)
C         1.22756566162904   -0.15663687825288   -0.64457782497410
C         2.68215260997169    0.03373335628597   -0.27408624697905
C         3.56131095558486   -1.01091539378033   -0.64813742304527
C         3.02457410558886   -2.22541134847127   -1.38783246417870
O         3.89117908455397   -3.35362020641294   -1.27270732963555
C         4.91629664923993   -1.00378776352634   -0.22820395733595
C         5.34695848338799    0.09758095112085    0.52418284466312
O         6.61373502694658    0.35816295185503    0.98871870531380
C         7.56755966290707   -0.68982782253017    1.12446710962763
C         8.17485176996410   -1.04876158274836   -0.21294265679071
O         8.64406198466891   -2.13996385626772   -0.52938475631887
C         4.52871681836729    1.19409976160515    0.80648237722248
C         5.09497927510116    2.35951745733727    1.44023912059714
C         5.27747290501339    3.44727659662366    1.89789384110232
C         3.19332506887705    1.19014913956332    0.36592449301232
O         2.40701532211091    2.29210348021830    0.62493539850660
H         0.83109665972039   -0.98009970256475   -0.05106749300219
H         1.23511100367559   -0.18460663462679   -1.74311431826491
H         0.66236596043983    0.77547795377451   -0.52783852286893
H         2.85522467008236   -2.03258447623609   -2.44028056914205
H         2.06870178214412   -2.58313699314275   -0.98226669903091
H         3.60224256928071   -4.05717095173258   -1.87861368097843
H         5.39008768729730   -1.97456021967612   -0.30856698274003
H         6.98592748219286   -1.47469456699839    1.61294534381841
H         8.35032718889629   -0.42797279021317    1.84479711999354
H         7.99081988254368   -0.26548585063997   -0.96765558766946
H         5.56924904562266    4.40897453882593    2.26039352069474
H         3.01240439971494    2.92038964787986    1.05315989707486
