28
 energy: -47.952201126194 gnorm: 0.125066760959 xtb: 6.4.1 (79825abcba525fcdf90b791dcacef51065a7a4e7)
C         1.05641882134512    0.16504658479785   -0.42511950151584
C         2.53275438293433   -0.01290019602487   -0.14566236776598
C         3.27452131967011   -1.21787564585791   -0.18971543377292
C         2.63285344210366   -2.52204583976250   -0.63428046813579
O         2.95462010975943   -3.54769941482077    0.30466264650681
C         4.63502104012667   -1.25668849669198    0.21017858982546
C         5.25748795679190   -0.02805037681151    0.47008604480615
O         6.61218919727750    0.13395224464295    0.63427821280936
C         7.40570368051108   -1.04166454146202    0.51281351557254
C         8.82769518736449   -0.65036766360392    0.17945343674440
O         9.76260294392464   -1.44822175749523    0.15964024346169
C         4.62140393900654    1.18984803863835    0.21772412830440
C         5.34276411489559    2.43855147539242    0.18808575717692
C         5.85344286943724    3.45817782623444    0.54240347551329
C         3.24177137914932    1.21062291542185   -0.05349610217566
O         2.53487782004821    2.37926569376841   -0.23855988949545
H         0.56072139043606   -0.36129358019668    0.39022294188331
H         0.68846738494373   -0.38580637154160   -1.30192872936418
H         0.60601102661294    1.16455981262571   -0.42990990606578
H         3.06755174879393   -2.85286771854713   -1.56974971766164
H         1.54705210995943   -2.44974718957952   -0.78244084509327
H         2.48533377123743   -3.34810792436929    1.13262643662863
H         5.05047986883211   -2.24548066876923    0.36189981739552
H         7.08702354755948   -1.69391606287307   -0.30323410036118
H         7.39124235310128   -1.66613227266841    1.41281312975753
H         9.04864557691298    0.41825478447195    0.01756704013805
H         6.31165382334742    4.42137775469132    0.48165071331021
H         3.21777346051934    3.04559212937341   -0.05341590935089
