28
 energy: -47.958252995754 gnorm: 0.110995376865 xtb: 6.4.1 (79825abcba525fcdf90b791dcacef51065a7a4e7)
C         1.73953985155688    0.33648496171348   -1.38379622014034
C         2.92022439415171    0.08420507920877   -0.47183847974207
C         3.69235122235233   -1.10205178172638   -0.49903295553063
C         3.33496852409139   -2.15021729642114   -1.54012003464568
O         3.69727275103159   -3.48821468228323   -1.20010259492326
C         4.95011960491590   -1.22362148888684    0.14565353815137
C         5.34765942511282   -0.17471220563559    0.98608200251543
O         6.58589672802829   -0.19353226582942    1.58176107287403
C         7.59908300270962   -0.82843882134877    0.80920623709440
C         7.48774264170790   -0.44107497885385   -0.64813881889942
O         7.83048665064558   -1.23364887068973   -1.52299275047422
C         4.51294387702860    0.93492018668226    1.13948305170635
C         4.89370351122264    1.92339996846118    2.11847694443978
C         5.03641875105287    2.91955955053104    2.76133788014922
C         3.27772134318183    1.07015221414505    0.48121593261440
O         2.47582167192248    2.18593112158310    0.58923167876497
H         1.57267065570663    1.41059965648261   -1.46103289781666
H         0.85389582224137   -0.12433862408012   -0.92455995937514
H         1.89757736387014    0.04307522144664   -2.42823468075070
H         3.84306281008254   -1.87689848713584   -2.45698724426205
H         2.24449919964751   -2.16597900657251   -1.66962428788949
H         4.66940966352775   -3.50333357219179   -1.21775794329983
H         5.49315435261691   -2.16067538229017    0.16511131808512
H         7.52882413020784   -1.91830307918583    0.82271092690905
H         8.56756072063487   -0.53173842063206    1.22656479443012
H         7.01606199706367    0.54446712563588   -0.80046854887651
H         5.22343658554579    3.56465586422304    3.59216719831515
H         2.91865118790618    2.90508739376428    1.07020146881523
