28
 energy: -47.947888080311 gnorm: 0.116297169481 xtb: 6.4.1 (79825abcba525fcdf90b791dcacef51065a7a4e7)
C         1.26122672588145    0.20000638350348   -0.93999957995711
C         2.63645119869920   -0.02864050924503   -0.35194661729131
C         3.33204816501605   -1.25544899292614   -0.22861573430972
C         2.61203715725206   -2.56293671115991   -0.51548791521627
O         2.31815090941797   -2.66833924123212   -1.90819549255817
C         4.65213292506009   -1.31975878078040    0.28676919975698
C         5.34734227764964   -0.16881495593392    0.68247216766978
O         6.54004663218372   -0.16241733143432    1.36499303660795
C         7.64417894109817   -1.05987645952176    1.32080397640570
C         8.51926973486599   -0.79044774742831    0.11750588490765
O         9.72012661335550   -1.01457171254392   -0.01934232808064
C         4.64630363232149    1.03683525396335    0.60173592593240
C         5.21206357596073    2.26655753997711    1.09993065124023
C         5.48904504255382    3.32865397007039    1.57025411523247
C         3.40445858625727    1.12397097932722   -0.05218015245863
O         2.82915764580424    2.29116542351382   -0.50644769901595
H         0.85203828493688    1.14797601345815   -0.59150049983775
H         0.54091572220191   -0.62922126562666   -0.90601100272955
H         1.55652767470481    0.27986189839222   -1.99277556945441
H         1.70688849286233   -2.59496366077040    0.07880883082688
H         3.22154870737211   -3.41834361425591   -0.19467982947888
H         2.97685020198624   -3.20658085023590   -2.37936603515573
H         5.13104092941188   -2.29058682676806    0.32517961672375
H         7.39011224281175   -2.12100341365618    1.27199333049362
H         8.18268681194145   -0.83885677595114    2.24888153404404
H         8.00498823588451   -0.42306029551856   -0.78666291252679
H         5.82308211154288    4.29203075912049    1.88920030075521
H         3.27808173423583    3.02540317698783   -0.05480874148556
