28
 energy: -47.954115560337 gnorm: 0.114608391837 xtb: 6.4.1 (79825abcba525fcdf90b791dcacef51065a7a4e7)
C         1.11503096433061    0.07614045542136    0.13230372100770
C         2.62432812044547    0.08408210966695    0.02606313395345
C         3.41148264435863   -1.08849215051949    0.12395112579110
C         2.69905745743802   -2.37895988600156    0.49459785414054
O         3.17397104859846   -3.64188180075557    0.02919639047393
C         4.82635172246283   -0.99013906944230    0.15316264491927
C         5.51296685410083    0.20380063674248   -0.10690699160398
O         6.85923824761765    0.39995237951994    0.08673490748485
C         7.67409466979656   -0.71634452021987   -0.25441605017587
C         8.02522728655106   -1.68509972142327    0.85216484499290
O         8.86836210905616   -2.55385714192709    0.63909104092878
C         4.72142116975878    1.33859553156267   -0.29994051437118
C         5.33888846256395    2.64013934011217   -0.22771122531070
C         5.59655879348488    3.79984738614866   -0.10665348325371
C         3.31926581121015    1.29795003317632   -0.20152154440094
O         2.56514284402809    2.45120678393504   -0.23267383041121
H         0.75351428051460   -0.61895649090323   -0.62511236879332
H         0.76062742160346    1.11555718969842    0.09189770088809
H         0.90496397977221   -0.38673741708987    1.10365987114849
H         1.68588052862735   -2.20794525186258    0.15147257413296
H         2.66184989517841   -2.46852101657215    1.58855284733272
H         3.37792719866008   -3.48025237706430   -0.90774986524963
H         5.38042251618577   -1.92078828863691    0.16842441679446
H         8.67119933664700   -0.33584041059286   -0.48662649849421
H         7.22635232357030   -1.20686309709916   -1.12567186782068
H         7.56066334073349   -1.53093806324725    1.84079760758401
H         5.89375546763915    4.82475527830707   -0.05527038121810
H         3.22604571633265    3.16146406744085   -0.17472859058372
