28
 energy: -47.958131164494 gnorm: 0.105533689421 xtb: 6.4.1 (79825abcba525fcdf90b791dcacef51065a7a4e7)
C         1.16184013130252    0.02523788081641    0.12323703100358
C         2.67455945519787   -0.00316372601027    0.10903741081879
C         3.45083000998514   -1.18687781282779    0.09033781243610
C         2.88575384865574   -2.59731594455066    0.05047781377016
O         3.77129104432531   -3.71009591567693    0.17154727345804
C         4.85182703969784   -0.98752259213207   -0.00888900913311
C         5.49488411541446    0.25749767482776    0.02226701378477
O         6.82905555472640    0.53576138951020   -0.15373079929944
C         7.78013208938737   -0.51818545130303   -0.25929220406238
C         7.70799727414721   -1.52492417202879    0.86657446091887
O         8.07788561711723   -2.68857592745078    0.72475261542488
C         4.71274388963743    1.41208983526070    0.10436189663831
C         5.16811761493851    2.77338973615471   -0.03704723809879
C         5.61168426137386    3.88195806233372   -0.05426973846721
C         3.31578920388968    1.25936060131788    0.05367273496945
O         2.51900129942735    2.37670438570759   -0.07417465998232
H         0.69601665716136   -0.75767152633362    0.72122913372856
H         0.68302241715514   -0.17155094445560   -0.84610780729390
H         0.89102022740976    0.99902581954229    0.54786682436026
H         2.40310078233723   -2.68233243288996   -0.91561051827841
H         2.02366467778411   -2.75535761178900    0.71226948220275
H         4.31450742888582   -3.71994416457832   -0.63493238437002
H         5.49619397748916   -1.84249160960351   -0.17367541694713
H         8.75554957154009   -0.03168132794049   -0.19002995531693
H         7.72761504947274   -1.03087917549260   -1.22601630444279
H         7.33813690088030   -1.18176839407948    1.84760842163046
H         5.92794164211209    4.90176240775832   -0.01708596123892
H         3.06999079913414    3.15367162830053   -0.26743132542051
