28
 energy: -47.946517518770 gnorm: 0.119409158061 xtb: 6.4.1 (79825abcba525fcdf90b791dcacef51065a7a4e7)
C         1.07786522407618    0.11146416119941   -0.53334840654467
C         2.50243162214125    0.00997388635714   -0.03371019272248
C         3.24648604522434   -1.19241141797387    0.03540778950371
C         2.59793421607820   -2.56346476680644   -0.06373284095208
O         3.41874756545864   -3.51678363908516   -0.73794481523435
C         4.61915324346180   -1.11911574180101    0.38582705172731
C         5.34346530576902    0.07358442342672    0.51776237306752
O         6.68635237625287    0.13014131390093    0.80390042238371
C         7.35353858217135   -1.12105282021610    0.67792606685050
C         8.84339495092993   -0.96820608474858    0.46991667085571
O         9.49306860775864   -1.57204308099034   -0.38115397959413
C         4.56450716188675    1.22354380099936    0.36815089888782
C         5.18259280751588    2.51496948884489    0.19296803009561
C         5.64296901645048    3.60048559394234    0.00407584662704
C         3.18633929250939    1.24499004542073    0.08963448883248
O         2.50684757759427    2.44396536780615    0.06908609739993
H         0.39493072711681   -0.04611047565012    0.30109986325830
H         0.87030165407710   -0.48751379350286   -1.43099223179251
H         0.96791034948238    1.13919711098593   -0.89885045048812
H         1.69171173648294   -2.52090194536734   -0.65572749734560
H         2.54287048935968   -3.05554948602050    0.91655474013530
H         3.44761925056114   -3.33926161896382   -1.69358220759050
H         5.17764322744452   -1.98544032867607    0.71885255342650
H         6.92700329150695   -1.70858112677647   -0.13804018258641
H         7.33956602948412   -1.63452595580281    1.64556158180118
H         9.32968425003505   -0.29032641292760    1.19170755789703
H         5.87830967770741    4.64234162868942   -0.01944115763915
H         3.09641774515323    3.21462771445989    0.12478373838862
