28
 energy: -47.953817194449 gnorm: 0.116622248306 xtb: 6.4.1 (79825abcba525fcdf90b791dcacef51065a7a4e7)
C         1.11740194221807    0.25150746192365   -0.57397321352494
C         2.60625715070894    0.20014682110479   -0.30939752326842
C         3.29127908402553   -1.03504580611873   -0.40515153204115
C         2.52652233078724   -2.30300225399144   -0.74818095672783
O         3.12888182224951   -3.38564502174333   -0.03954783764433
C         4.69590945935974   -1.08224789239626   -0.21236505206051
C         5.39578502949951    0.08116019757935    0.13580785282057
O         6.74559830454787    0.08498665428372    0.39350695571892
C         7.34201339842226   -1.04101703989110    1.02824977068332
C         8.41733701109813   -1.73524745550346    0.22324959333771
O         9.45022126581110   -2.19238511845199    0.70821505850059
C         4.73554565382901    1.31196035720307    0.16375205032131
C         5.26562106784645    2.58564645214523    0.58475440979694
C         5.59938127971536    3.70397151452938    0.83758814245029
C         3.34286044361335    1.37566622209285   -0.01995280006291
O         2.66128186666341    2.57068388541852    0.06405003840267
H         0.62189824551257   -0.16045752013778    0.30482946676374
H         0.84548968868585   -0.25246345776627   -1.51189575916415
H         0.79360621559518    1.29508364487784   -0.66353832764569
H         2.52331421442965   -2.43699054839111   -1.82314388431717
H         1.48262324866476   -2.22940005629637   -0.41501350408892
H         3.76816367202405   -3.86789767122154   -0.59121944885325
H         5.27164690113855   -1.96030094027761   -0.47860662900136
H         6.67823514905154   -1.84798600697666    1.34624710312369
H         7.76845227469032   -0.65624665903777    1.96113241117564
H         8.38114476124915   -1.56675484558036   -0.86637445945591
H         6.14656910172677    4.58904965058925    1.07971301106367
H         3.33275923950085    3.15526469417702    0.45392063666344
