28
 energy: -47.957585772198 gnorm: 0.118096429706 xtb: 6.4.1 (79825abcba525fcdf90b791dcacef51065a7a4e7)
C         1.19736161878964   -0.02882377470289   -0.29957075190570
C         2.70308645476081    0.04331747048704   -0.16950767761158
C         3.44096372811609   -1.12638629538008    0.13290749441730
C         2.70746680124634   -2.43216258492760    0.39207185574302
O         3.56996160732043   -3.55535464400308    0.56999184068120
C         4.85390267295611   -1.00878383521068    0.17932247195174
C         5.49687730849301    0.22801088120038    0.03272434412502
O         6.81814200222735    0.43128230297588   -0.28564602608682
C         7.54210596546540   -0.78129148003167   -0.46462852516303
C         7.90868893216618   -1.54160233514971    0.78990181100387
O         8.71919606161183   -2.46463732077479    0.74406690008026
C         4.72474211509318    1.39211759464548    0.01759992829462
C         5.21776963930833    2.74457882760406   -0.07334874058544
C         5.57165860272835    3.88154822200220    0.01628891661987
C         3.32231288547276    1.31207272752206   -0.04692199099997
O         2.47086762640886    2.39552921460626   -0.07583675576049
H         0.96318061359538    0.95096831763722   -0.71514255834999
H         0.70552876937147   -0.20268345945168    0.66763911348085
H         0.89439275509311   -0.83458585163547   -0.97844789287425
H         1.98095919168702   -2.66887807624134   -0.37582196314000
H         2.22483698802616   -2.33518144235311    1.37380820032148
H         4.19835220345120   -3.63775727067684   -0.16752123273398
H         5.39382909926744   -1.92281259515181    0.39465061620135
H         8.47296812329166   -0.58807161605455   -1.00229432571952
H         6.92809537627149   -1.43023895188014   -1.09868416843953
H         7.36374709445689   -1.28768409815245    1.71485810103824
H         6.05404497593174    4.83217977949248    0.08703702253645
H         3.01115994082192    3.16060748038776    0.18369190878208
