28
 energy: -47.951454768024 gnorm: 0.122449890528 xtb: 6.4.1 (79825abcba525fcdf90b791dcacef51065a7a4e7)
C         1.39493471034371   -0.06021888961048   -0.77231167195934
C         2.83072161015833    0.00368687614316   -0.29927882994718
C         3.58456185981233   -1.17311034206194   -0.07345171230039
C         2.99015899751320   -2.54497993241091   -0.34712066588933
O         3.01206713148639   -2.73377568044624   -1.76168399675975
C         4.84518012004990   -1.12385636998058    0.57523681433897
C         5.44334032758847    0.10332013848953    0.89274391916676
O         6.64193583980759    0.32230281428535    1.52822385221198
C         7.45910558427813   -0.84299417611275    1.49975862523642
C         7.68363596715176   -1.50715544266576    0.16006539469119
O         8.32830479327098   -2.54225696098227    0.00520035004017
C         4.77108379104999    1.25207651356498    0.46848467528708
C         5.44039903678702    2.52781890690004    0.39779047804401
C         5.66575943059649    3.66553224680924    0.11354976111891
C         3.44322852104685    1.24465471282682    0.00575007523397
O         2.77025899072334    2.43226597902182   -0.18494481785277
H         1.39223925189730    0.31957665904838   -1.79372309099030
H         0.84779615454876    0.78449584777457   -0.33104295741483
H         0.87415614474766   -1.01194415472930   -0.61443345920741
H         1.99775875786460   -2.63729876980337    0.07729357402017
H         3.60502844313348   -3.36388116803478    0.04971614895819
H         2.44986609938707   -1.97744018567988   -2.00142779444270
H         5.41517439477566   -2.03710371584852    0.69532488934305
H         7.09293722228939   -1.48486196798145    2.30402801692340
H         8.46606140026272   -0.55456268293035    1.82071912510308
H         7.25769613083544   -1.02294063355203   -0.73497175014215
H         6.01378541064472    4.65884413198648   -0.06978516233557
H         3.48303326674365    3.09272980274303   -0.20381373914375
