28
 energy: -47.954318287119 gnorm: 0.108748550795 xtb: 6.4.1 (79825abcba525fcdf90b791dcacef51065a7a4e7)
C         0.93308195343199    0.11798414523975    0.04099387440910
C         2.44042902439363    0.01752925539589   -0.04351451636430
C         3.11448641292869   -1.21034752322960   -0.24867290182519
C         2.49447699971866   -2.57917977340406   -0.47697583681781
O         3.13994528201178   -3.62995082182262    0.24160896352939
C         4.52615419345768   -1.17356071477330   -0.38366169908496
C         5.30069620809044   -0.00547864219236   -0.36824965559650
O         6.67048690228479    0.09232709977582   -0.31798179707572
C         7.57943562993342   -0.97761984926842   -0.08235611052085
C         8.63177074135794   -0.52745885804850    0.90569648278046
O         9.38363811492866   -1.33831227754143    1.44256556843193
C         4.63372146312124    1.20280727279047   -0.15201870432376
C         5.44879870861745    2.37554748126868    0.05004243070808
C         6.12799457773235    3.26884989901698    0.45830153088848
C         3.23032792616444    1.19390393567708   -0.06378424531967
O         2.55300484878029    2.37931621941349    0.12517137649061
H         0.64860585905308   -0.33554687258004    0.99015991839783
H         0.55244947155060   -0.48198706301602   -0.79732297008956
H         0.73546581855973    1.19531435888244    0.08815645516077
H         2.63660497000962   -2.78888942948626   -1.53022317392790
H         1.42934986482077   -2.69994396663922   -0.23809653418649
H         3.31774351177617   -3.30168671496791    1.13950702791447
H         5.12535960982102   -2.05853711105808   -0.56002777033647
H         8.05608436112319   -1.21034129614333   -1.03711759910105
H         7.12254006315331   -1.88223157580721    0.33368769235882
H         8.64937614042564    0.54139313461351    1.17814039217649
H         6.72852508637454    4.13610243403260    0.62753044449098
H         3.19067816336106    3.07756291843425    0.34975979030354
