28
 energy: -47.954282765063 gnorm: 0.122487765000 xtb: 6.4.1 (79825abcba525fcdf90b791dcacef51065a7a4e7)
C         1.28906860315526   -0.06150325178857   -0.73164906425955
C         2.74830850212652   -0.02030585946419   -0.33384290608009
C         3.68455566403822   -0.93464277701768   -0.87380026858575
C         3.45073431722465   -2.13160334141862   -1.78091030323061
O         2.94434159997618   -3.25066795962592   -1.05401690614186
C         5.01996820271483   -0.89646784560557   -0.39672879319286
C         5.36589433142928    0.04542269627116    0.58191613900168
O         6.62264438672482    0.20341743199299    1.11486672417582
C         7.61708586984315   -0.79932475377067    0.93573555386259
C         8.25558468387103   -0.72182715173289   -0.43269983688207
O         8.70839612191471   -1.68161815335424   -1.05300562046875
C         4.47378031438828    1.05947681907158    0.93883738879418
C         4.86161178640879    2.14280133272161    1.80860399477296
C         5.06207870743899    3.07922483312124    2.52197329681776
C         3.12263756567249    1.02130251411849    0.55110809414783
O         2.20631104822840    1.97966768491126    0.92734600232338
H         1.18479857862440   -0.89708475470800   -1.42336036619551
H         1.05246274934918    0.85884274223428   -1.28355719903365
H         0.63926634570563   -0.07411984984240    0.15125222003952
H         4.34109760091075   -2.40980324753969   -2.33169745307955
H         2.79523979892392   -1.81817634469808   -2.60445968374412
H         3.77222193368253   -3.69384016801168   -0.80142431742385
H         5.82138553289851   -1.52280536698271   -0.76924310004792
H         7.24130495082969   -1.81499821581143    1.07757667538676
H         8.41485673665442   -0.57434244535342    1.65205460819535
H         8.33033612384847    0.33737126983188   -0.73185053886790
H         5.35616329217040    3.95044836888103    3.06592741010350
H         2.83386988959738    2.62106077569362    1.30070973064340
