28
 energy: -47.954007307265 gnorm: 0.105722850588 xtb: 6.4.1 (79825abcba525fcdf90b791dcacef51065a7a4e7)
C         1.02870496589954   -0.01618495139567    0.30435665289712
C         2.49238947341998   -0.02347285859835   -0.07892208372801
C         3.24961022256572   -1.07911454288605   -0.64138281162079
C         2.60538708792057   -2.39367531851696   -1.05021303187649
O         3.06090304883130   -3.37873330951093   -0.12323990281453
C         4.66408489726467   -0.97941356052734   -0.68264134073319
C         5.32597765176024    0.16527388002983   -0.21771422479639
O         6.69682351439626    0.23707211143047   -0.28132232762884
C         7.33461466904344   -1.00505103877614   -0.00411075131391
C         8.73546913289621   -0.83242404676286    0.53820716838892
O         9.62394385350752   -1.68164590358683    0.55944720812032
C         4.57674290017912    1.25253199399670    0.23844696908396
C         5.31517583300356    2.42268849754420    0.64581626887702
C         5.90660594881899    3.42657355438927    0.90734431962856
C         3.17822407579475    1.14453103048303    0.33773884607997
O         2.47026631598136    2.10014328993241    1.03435500121908
H         0.76347175450492    0.91078224066950    0.81221133406587
H         0.82428645605737   -0.80596159358694    1.04062263259939
H         0.39952604659546   -0.12424845990008   -0.58691939568695
H         2.87173009777800   -2.73800369678830   -2.04218471349009
H         1.51296426056406   -2.32297722081676   -0.96213764769664
H         3.99707057868334   -3.54091008310569   -0.33031360702148
H         5.12770187329819   -1.78463367646654   -1.23943142721546
H         7.30456704177611   -1.69873813966717   -0.84721106056571
H         6.72940743248947   -1.36779869686879    0.83392667188368
H         8.97378897976158    0.18160759661641    0.90142018203714
H         6.41692637906529    4.33254102843176    1.15269765502409
H         2.99720209145745    2.91681591534193    1.03477419241714
