28
 energy: -47.955132046850 gnorm: 0.124690232905 xtb: 6.4.1 (79825abcba525fcdf90b791dcacef51065a7a4e7)
C         1.40646287304412   -0.08315054012508   -0.99841707328418
C         2.71927173563683   -0.05616880770728   -0.24666384721836
C         3.42184111254515   -1.24162534989935    0.07770286871816
C         2.69059492444541   -2.55688029922951   -0.13588334102006
O         2.46890008244856   -2.86873099140598   -1.51091561618763
C         4.74940394498073   -1.27484087793037    0.57655636603712
C         5.40050420671379   -0.04887484895591    0.77057781210682
O         6.60995910011714    0.17290075008562    1.38413612732536
C         7.60281966863329   -0.84394357437813    1.46628989316109
C         8.06919174243157   -1.04562660552203    0.04216803116501
O         9.01783830668602   -1.72852775692903   -0.33826848677752
C         4.76700137834075    1.15231699300991    0.44289154391615
C         5.41158456614300    2.43596099466142    0.57430612898678
C         5.77779345442019    3.57233700156101    0.55167106009621
C         3.44877561548455    1.14215841405459   -0.04655267536822
O         2.85007774476740    2.30458949767036   -0.48242868114579
H         0.99671847647905    0.92598144133272   -1.03440848817671
H         0.66562745591824   -0.69643468716456   -0.46675260884192
H         1.61638492745539   -0.37803403734479   -2.03325681211750
H         1.75899482974017   -2.50444070075601    0.41446182798205
H         3.24799930231511   -3.38474056036811    0.32247337210182
H         2.23339304578780   -2.10327077005601   -2.06245668697534
H         5.14739052649332   -2.23085419869509    0.89433072506416
H         7.28873217048867   -1.78572085894611    1.92162205016436
H         8.45729069427100   -0.39559146936556    1.98496902278393
H         7.34964564634170   -0.58334213340851   -0.65462942818301
H         6.09192120056837    4.49705971115085    0.98481531633218
H         3.52545672218739    2.97867012580721   -0.29778250276750
