28
 energy: -47.950954479773 gnorm: 0.127875095081 xtb: 6.4.1 (79825abcba525fcdf90b791dcacef51065a7a4e7)
C         1.27450893230487    0.12645237117305   -0.96457532626137
C         2.67824215298382    0.07722220105181   -0.40204757195334
C         3.52486768555805   -1.04491090858648   -0.56987841300394
C         3.12580165403826   -2.37246023709703   -1.19325207472203
O         3.73511795654345   -3.43418379701701   -0.45936519958186
C         4.88558937624079   -1.04814225616904   -0.16887068031810
C         5.35943250338356    0.12166021700588    0.44072216624385
O         6.59943969009504    0.22808204388526    1.02336779690518
C         7.47820611044683   -0.88048872798279    0.86420073361077
C         8.17566656374339   -0.90686318892244   -0.47712522817118
O         9.03180146797615   -1.71804543430067   -0.82358247033812
C         4.51979046459552    1.20830773505411    0.69716780827764
C         4.89616364159685    2.27946524075851    1.58681044479414
C         5.20936455968809    3.24961480256534    2.20865184434428
C         3.18218653633889    1.22229342464092    0.26358030277597
O         2.36344548771057    2.31687125994382    0.44031598773494
H         0.59847505545466   -0.15671824401511   -0.15814751755161
H         1.26269475861318   -0.48393703764069   -1.87830770548593
H         1.27154231244636    1.14347629012506   -1.37392894361109
H         3.43226107996307   -2.36202618671693   -2.23223340463820
H         2.03452843678382   -2.37530988651712   -1.06972969842263
H         3.39412634135158   -4.27044401837363   -0.81989817915504
H         5.38961045964368   -2.00200580006271   -0.26604277498014
H         6.97600577817493   -1.83738276349539    1.02254029218889
H         8.14419773526881   -0.80165662479363    1.73046226355847
H         7.85548686345210   -0.05523732395328   -1.10098303398747
H         5.51752836921656    4.06140326082839    2.83109608404112
H         2.84047308336077    2.78524964785395    1.14578181016151
