28
 energy: -47.950358787615 gnorm: 0.124071877714 xtb: 6.4.1 (79825abcba525fcdf90b791dcacef51065a7a4e7)
C         1.20171122133234    0.11379909190800   -0.70561273538545
C         2.59840845514448    0.01001066666293   -0.13308078211662
C         3.43501679628854   -1.13193350330262   -0.11986346064876
C         2.92897258738639   -2.50436086753514   -0.53289859406249
O         2.49942898222786   -2.63273289576082   -1.88793590934322
C         4.76258913796686   -1.16239833097555    0.37914027434780
C         5.39002407024587    0.05846853801635    0.66265053307081
O         6.71100125899610    0.22086287700256    1.00480064067600
C         7.46876122309279   -0.87648530195219    1.50291763206027
C         8.40338836268861   -1.42845744038798    0.45025391619025
O         8.91041711668996   -2.54821528434835    0.45922292244319
C         4.67854301832965    1.24182231562430    0.45043719418595
C         5.33012679063035    2.52552124070825    0.36068838616883
C         5.92956989721647    3.50862497063767    0.04422869852235
C         3.29541940175204    1.19788199764477    0.20060464907546
O         2.51164657134363    2.30410736192793   -0.04766666520505
H         0.83353160938752   -0.89156280193391   -0.90865077395360
H         1.28960733962376    0.67765024854387   -1.64474414821621
H         0.58666826881697    0.66203539697311    0.01762716426950
H         2.11979731012175   -2.73727237872326    0.14864087752099
H         3.65817512523344   -3.28373007222912   -0.27407350138614
H         2.73899104102177   -1.77347130754726   -2.27506639347637
H         5.23353024810192   -2.12772363185901    0.51948579290326
H         6.94959746229443   -1.68300743903403    2.02532916848824
H         8.19786963762844   -0.34752492107708    2.12643204176085
H         8.72480471063980   -0.71222174977434   -0.32478039433999
H         6.42680515048921    4.44103933715072   -0.11313336588025
H         3.00551298434722    3.05626071963265    0.31972543828181
