28
 energy: -47.956466397403 gnorm: 0.119114410628 xtb: 6.4.1 (79825abcba525fcdf90b791dcacef51065a7a4e7)
C         1.28825741263092   -0.33703632618064   -0.21596543640504
C         2.77169297045058   -0.04317497311181   -0.16705244910837
C         3.77341510089588   -0.88498771333143   -0.70744931743337
C         3.32529956826192   -2.17635748336190   -1.37212383748488
O         4.38400700392566   -2.93631771925499   -1.95411371693540
C         5.16237768138182   -0.59711588372460   -0.72459311418690
C         5.59996706874538    0.48085547879263    0.05711133283391
O         6.93825787927800    0.69073711271955    0.28808049801602
C         7.74219908263664   -0.41279895612427   -0.11488404350303
C         7.18342418406823   -1.56782766704018    0.68510428540322
O         7.04353580883573   -2.74031847926008    0.34347177913786
C         4.62039563255398    1.28959704911624    0.63843982796553
C         5.08891146433658    2.30828613103747    1.54577916600917
C         5.24973354049073    3.33357953037870    2.13644102332669
C         3.23133472432005    1.08945627052681    0.54994436492676
O         2.34880640995615    1.90300819813010    1.22740290369800
H         0.73183313065427    0.21727210035345    0.53945986847563
H         1.24355379759029   -1.40479778149566    0.03998129456970
H         0.91975919469136   -0.10060790219421   -1.22106617400151
H         2.65457329237394   -1.94878017250775   -2.19178430382037
H         2.79434173989151   -2.78377681176578   -0.62696031737772
H         4.88324279987912   -3.41863130588495   -1.27313817281568
H         5.79891438104266   -1.27857055896516   -1.27575178699852
H         8.80049443448185   -0.22265183201693    0.07689136085508
H         7.56509075855037   -0.45750269723577   -1.19507041696570
H         6.90126890686701   -1.24742245742140    1.70231081248748
H         5.42493039387536    4.17079744797726    2.77657733166326
H         2.87604990957370    2.67028935694937    1.50652577770023
