28
 energy: -47.946790791487 gnorm: 0.117562851475 xtb: 6.4.1 (79825abcba525fcdf90b791dcacef51065a7a4e7)
C         1.11558357324535   -0.12309462928391   -0.13652912891565
C         2.62275214706227    0.00749097037769   -0.10972754288632
C         3.43766014464925   -1.14971067604871   -0.07916595568907
C         2.80912582997170   -2.53337716174730   -0.10460811581840
O         2.49131215194778   -3.16577845397816    1.13481767107200
C         4.84931157524467   -1.07406548758288    0.03872893168528
C         5.51697314236863    0.15814529216699    0.01744035343582
O         6.87896081049832    0.34044916091309    0.00423996617161
C         7.69455006130635   -0.68814011881543   -0.54649772137259
C         8.45149909795512   -1.30789012813318    0.60642903960550
O         8.92213384485231   -2.44310548217724    0.63480624565623
C         4.74602543590918    1.32313211398256    0.02080244957359
C         5.40147157973244    2.60744365186905   -0.01705818435457
C         5.78318468043051    3.73809056867901   -0.06069743414983
C         3.34488325053255    1.22518959220811   -0.04691632274467
O         2.55328518623566    2.33577499370027    0.15219575943032
H         0.88636302318319   -0.96081922116755    0.52165675501512
H         0.81980403067220   -0.42184071434516   -1.15185513723789
H         0.53168572622206    0.73848724429823    0.20793684020138
H         3.50410833832955   -3.18481126476468   -0.62049703276734
H         1.87914763519137   -2.42464603980629   -0.67859525089181
H         1.88483747609526   -2.61164688693418    1.65512252515382
H         5.31295797660886   -2.05129363262310   -0.01951625887133
H         8.25469045443792   -0.18105585804771   -1.33518719066805
H         7.05311643284521   -1.44303329136472   -1.01433057784678
H         8.55948516442300   -0.60782731685056    1.45214251748892
H         6.15510754921482    4.56493466808610   -0.62585625676809
H         3.01841716664175    3.07685524291875    0.57535998969662
