28
 energy: -47.957507949536 gnorm: 0.101651745840 xtb: 6.4.1 (79825abcba525fcdf90b791dcacef51065a7a4e7)
C         1.28826894446277    0.03680790792070   -0.85991502358361
C         2.68085063019575    0.00793000212746   -0.26897479695442
C         3.55575498548774   -1.10464039237820   -0.29820114370050
C         3.08868746102846   -2.47730033138172   -0.75414877919875
O         3.59045406206261   -2.73750965912366   -2.06473437362409
C         4.89847575169828   -1.04760562067857    0.15592343324789
C         5.44989030961093    0.19902158761417    0.48216132185043
O         6.73723701879769    0.49725950285279    0.85927132047750
C         7.61363118633200   -0.58366645827017    1.15931474768696
C         7.85770535024029   -1.59483075617125    0.06191937965479
O         8.00516779772999   -2.80779281147798    0.19606149819249
C         4.59160638110673    1.30123972678502    0.48762324200701
C         5.08406346515894    2.49470368553543    1.13076320201569
C         5.44885849656134    3.35158051820400    1.87819775071519
C         3.23897656886259    1.25537874751526    0.10595930529913
O         2.47240601981311    2.40081018076932    0.10053066604983
H         0.56602229286903   -0.71139057240370   -0.53419733675015
H         1.46747120677676   -0.03694632481012   -1.94161208391713
H         0.91297544787655    1.04018511434020   -0.62687896318968
H         2.01323187604382   -2.53697659923823   -0.86965841663287
H         3.41099434327223   -3.26355555152567   -0.05840160682112
H         4.49265054089213   -3.09732341041866   -2.01819357306340
H         5.35262750472104   -2.00889474415213    0.36329926545549
H         7.35706314333941   -1.14902547426934    2.05790520247170
H         8.58587084476207   -0.07952331988846    1.18684884037128
H         7.93922546193090   -1.17188543754853   -0.95368484642685
H         5.80634023520428    4.22711518175250    2.37523711821938
H         3.04832363859430    3.17456955019313    0.21982441018442
