28
 energy: -47.955508413169 gnorm: 0.118287648084 xtb: 6.4.1 (79825abcba525fcdf90b791dcacef51065a7a4e7)
C         1.47862091562045    0.12323932660961   -1.05263867521340
C         2.89908902341038    0.05003765253469   -0.53665426031590
C         3.80912043688835   -0.99193621044996   -0.83708395633074
C         3.43055493581713   -2.19690061623336   -1.68265156158569
O         3.32513098031683   -3.31995877114585   -0.80815777113638
C         5.10742823474810   -0.91434289014420   -0.27072956067663
C         5.43050360978411    0.10763413027379    0.63246136584236
O         6.65289968096325    0.14801483541959    1.25898878541857
C         7.64309744203767   -0.80517368398691    0.88826817176462
C         7.85844500513502   -0.76611093100763   -0.60786068692914
O         8.16289111966451   -1.70095715398957   -1.34568948362013
C         4.52524973130758    1.09864625430243    1.01972916314655
C         4.83700728730974    2.16757339490128    1.93662674853259
C         4.90135870987558    3.05858786784222    2.72904319015042
C         3.23778459721930    0.99477075835572    0.46383221718700
O         2.33863389226930    1.99971219443230    0.74895285822934
H         1.58351573082852   -0.28997812319709   -2.05552532448246
H         1.10759777317789    1.15559843884679   -0.98784548929943
H         0.86220095946427   -0.48976566079126   -0.38468047510337
H         4.26674033309709   -2.30830574918230   -2.36227743738347
H         2.46706624263171   -2.22663963025018   -2.20891029394037
H         3.95470809663300   -3.38570054157188   -0.06998357630867
H         5.78362014558186   -1.71155527791416   -0.55454683198475
H         7.27630772305616   -1.80237449465868    1.14120814712876
H         8.51999865826324   -0.45867336569511    1.44607653565252
H         7.69867103631076    0.25406825369244   -0.99604482719984
H         4.92096079474829    3.83110572085362    3.46676548976109
H         2.72875606107175    2.45990575440890    1.51095170848668
