28
 energy: -47.947470789915 gnorm: 0.131181531711 xtb: 6.4.1 (79825abcba525fcdf90b791dcacef51065a7a4e7)
C         1.18113343372357   -0.03817329636967    0.34898930119058
C         2.68279955669950    0.03652097366306    0.17943797475860
C         3.45462986193487   -1.14837467539968    0.24595845363095
C         2.68938421071970   -2.46143875698775    0.26826159748933
O         3.52333174638153   -3.55338394553704   -0.11813253315234
C         4.86690813638381   -1.08048693528263    0.13088250968355
C         5.49294866775413    0.10874943503853   -0.26706054366544
O         6.79598067038790    0.48826363058552   -0.48268971176019
C         7.66266031884795   -0.64103554154282   -0.47609376999073
C         7.74935880608484   -1.21863907756329    0.91859600327831
O         8.06036324441785   -2.39505314225720    1.09278675890497
C         4.73913654251289    1.28488840272403   -0.26154861549023
C         5.37857978090361    2.56144376500038   -0.46653147422326
C         6.02239910257230    3.51228477812981   -0.13885817735432
C         3.36866757270845    1.27014201862245    0.05305485683127
O         2.58544038507352    2.40194707401724    0.12548090752948
H         0.97475750513248   -0.61931366629206    1.24744244682101
H         0.75710521281741   -0.52464011231101   -0.54048906794597
H         0.77474839255662    0.96787543023558    0.50594147726368
H         1.80064772554028   -2.32754530125972   -0.33649327219919
H         2.25483316512705   -2.72547748482881    1.24170500125841
H         3.86386436637245   -3.36575999829996   -1.00943789984187
H         5.35015649958721   -2.02134835532348    0.36451926683968
H         8.62567283034153   -0.17224903492952   -0.69003044857277
H         7.30034972300828   -1.39951260483250   -1.17866900517674
H         7.49022529646363   -0.44814652142978    1.66436491024431
H         6.50092050403879    4.45745361907742   -0.27697195032437
H         3.14330504785614    3.16620622012999    0.34754089463259
