28
 energy: -47.949541278581 gnorm: 0.119703830853 xtb: 6.4.1 (79825abcba525fcdf90b791dcacef51065a7a4e7)
C         0.97396815296755    0.20032507319536   -0.10263851501856
C         2.46454128470680    0.03647399565090    0.09903597832543
C         3.22175462530497   -1.13179551530301   -0.15767205509744
C         2.61658756250210   -2.50389024008610   -0.40539070435794
O         3.46052571564435   -3.63142114171855   -0.17396971698178
C         4.61829500553235   -1.10988170140751   -0.40581700915915
C         5.33943156066692    0.06829345947509   -0.16825871342226
O         6.70607463166891    0.18746407778225   -0.24890884778525
C         7.42049030228842   -1.04314517463624   -0.29019869894325
C         8.59184502836840   -0.84037129986333    0.64420640431071
O         9.44183643568064   -1.71017275399658    0.82302550121643
C         4.66968570340641    1.21623188801028    0.26214088856754
C         5.31158489528538    2.50283194573941    0.37670493515661
C         5.68444982502679    3.63468550955013    0.45319660555542
C         3.26723409689895    1.17565024040711    0.35627178460441
O         2.53750421570754    2.24694684181452    0.82477039735232
H         0.40492038002804    0.59585350660280    0.73835797422143
H         0.58017738647421   -0.79902696092701   -0.33468594702407
H         0.74849737130724    0.94633510083224   -0.87370841670138
H         2.25064944838785   -2.61414818716512   -1.41901831473778
H         1.83049806206883   -2.70507990810353    0.33469655003026
H         4.12263055829426   -3.60856163084187   -0.88578787386590
H         5.05663482067876   -2.04473773803535   -0.73328873924171
H         7.81053740610828   -1.34540997158718   -1.26458159801871
H         6.87097953387534   -1.87839642047115    0.15764240561664
H         8.67584471170277    0.11644049950721    1.18682547028319
H         5.99382557849890    4.64814707666725    0.58952182559177
H         3.09745654158936    3.01334198357102    1.03383388470245
