28
 energy: -47.955035927674 gnorm: 0.123162443310 xtb: 6.4.1 (79825abcba525fcdf90b791dcacef51065a7a4e7)
C         1.25527893637096    0.09349541969381   -0.63132208323658
C         2.75078184221590    0.14536978385862   -0.40747356183721
C         3.42993677332250   -1.05346994217218   -0.08242492716842
C         2.83613381498011   -2.44059298399929   -0.26551878386466
O         3.80446512816228   -3.32996506336133   -0.82091503283970
C         4.78094896665023   -1.01967647862433    0.34885830906766
C         5.41624298268536    0.19316525219839    0.64883337068815
O         6.67982653675908    0.19042085461898    1.18898930487073
C         7.30832919870651   -1.07189849028587    1.38399702152286
C         7.64524489093682   -1.55874461616694   -0.00732274818475
O         8.01995928569600   -2.69805663800498   -0.27671738537029
C         4.76886397670731    1.39608799002439    0.35652656213254
C         5.32351998349321    2.71113291759765    0.56512366077187
C         5.68201001013170    3.84190151422547    0.70230602115869
C         3.46240535953105    1.34584456719394   -0.16117943263075
O         2.90856275406164    2.51242878242056   -0.64285640279379
H         0.82873162799680   -0.52131649753827    0.16088806126695
H         0.95835421157795   -0.21257973986154   -1.64412777430121
H         0.89277842256398    1.11241249528396   -0.45154943404620
H         1.93851618768401   -2.40051006406380   -0.87065051146748
H         2.75445027822927   -2.88114772490783    0.73716883121257
H         4.42705884154966   -2.97846434428353   -1.48001652762190
H         5.30902353671631   -1.95838989328932    0.46413932846009
H         6.76633272112608   -1.82307955065603    1.96269350312731
H         8.22405595610730   -0.76708474318874    1.90236124669179
H         7.42432992636362   -0.82318292098689   -0.79923548847652
H         5.86163365855909    4.87399973504632    0.91185524465982
H         3.54901261273991    3.24336209516131   -0.62958481502924
