28
 energy: -47.954540015272 gnorm: 0.115804475589 xtb: 6.4.1 (79825abcba525fcdf90b791dcacef51065a7a4e7)
C         1.01291382480447    0.09855928505385    0.00859939809514
C         2.52571198090364    0.07434711133142   -0.00494875579863
C         3.26200028841153   -1.13371755015078   -0.05578187784978
C         2.58341031024589   -2.47892098901551    0.14466507448238
O         3.42907908288275   -3.54498994637402    0.57530937885884
C         4.67906419008824   -1.09073798242783   -0.10541871344495
C         5.36258213589845    0.13283290044575   -0.08973133648907
O         6.71658747232054    0.34273969457363    0.01528318635846
C         7.62177479305275   -0.68584366798266   -0.37091095134175
C         8.28785749905819   -1.35868990275982    0.80803510540296
O         9.17502335596157   -2.20706573660975    0.74313967465351
C         4.62039977146408    1.31551591299666   -0.13436547103033
C         5.35356949860894    2.55713064926043   -0.09756568543446
C         5.93593234364618    3.50657903389272    0.33298399004812
C         3.21441303257927    1.30826957096571   -0.11141354142522
O         2.46088855873856    2.44886578768410   -0.28723785446558
H         0.65363598530055   -0.51925050908466   -0.81405709225375
H         0.48385894760941    1.06174074003133    0.00657911433304
H         0.76796049681545   -0.41426864591516    0.94610791317702
H         2.04530769119702   -2.79962418166299   -0.73913551513048
H         1.85029942329211   -2.34535228382205    0.95141841848289
H         4.13475625029852   -3.49392616369588   -0.09177584379660
H         5.15669973635584   -2.03925862931566    0.10790780497636
H         8.41011902491332   -0.22279898713047   -0.96842729509642
H         7.12898287148371   -1.42025571208594   -1.01741188215547
H         7.93494190509400   -1.01439812588303    1.79489577026747
H         6.33897830043196    4.49578206550855    0.35380711402620
H         3.15447132457262    3.12957305027893   -0.27322937692708
