28
 energy: -47.954827191463 gnorm: 0.122494705363 xtb: 6.4.1 (79825abcba525fcdf90b791dcacef51065a7a4e7)
C         1.21178666007026   -0.16194131148867   -0.55131063183358
C         2.66763146581108    0.00801829275564   -0.17586731435270
C         3.56869674132325   -0.99285302186463   -0.61228764135370
C         3.10896278441348   -2.17147115956813   -1.45474809830844
O         4.24690219761326   -3.00861237655728   -1.65822216945604
C         4.92412213944448   -0.94611873216002   -0.19633202822578
C         5.38807614033331    0.22453018011509    0.41921358422145
O         6.66788880367018    0.45674365956656    0.86258230256815
C         7.46290715167404   -0.70350470321284    1.08227140170802
C         7.92199504971512   -1.33931222684155   -0.21051207952437
O         8.51558441072859   -2.41531023056284   -0.24044864021197
C         4.51175601553318    1.25832802499917    0.75816938451683
C         5.10618373652911    2.40916026742338    1.39278741392846
C         5.43541955247673    3.46228927887650    1.84939970967475
C         3.13980467395510    1.18374693530086    0.45889496409404
O         2.18990277912435    2.16970453232006    0.61778819091758
H         0.77608253797528   -0.84923291363625    0.17348270644319
H         1.17832600146397   -0.52820649902573   -1.58685486743999
H         0.58821199386171    0.73455502076668   -0.45453361161384
H         2.76586385292573   -1.86400626763783   -2.43518520352959
H         2.32892716875235   -2.69547663577893   -0.88632410970612
H         4.07693390213752   -3.89810628319939   -1.30395978427232
H         5.49690245494844   -1.83373257088734   -0.43591441943976
H         6.99665358123751   -1.45095400839617    1.72791056569806
H         8.32227888695716   -0.35688475308833    1.66665416611839
H         7.69794942538912   -0.64159798805856   -1.03512023876875
H         5.80404536753855    4.38828825728925    2.23416349852661
H         2.70990955454918    2.80483479491250    1.13819012326963
