28
 energy: -47.955076891828 gnorm: 0.110609186358 xtb: 6.4.1 (79825abcba525fcdf90b791dcacef51065a7a4e7)
C         1.28987718759736   -0.08037319242149   -0.71986957938202
C         2.73277813508821   -0.03176153666323   -0.26709832843553
C         3.48548077053587   -1.19068792545501    0.04023386657224
C         2.89526458686843   -2.54632298941994   -0.31209277462372
O         3.09321324730748   -2.86742345464648   -1.68861884979602
C         4.85900968790892   -1.02919132761041    0.35601593985603
C         5.43371061545501    0.19679935869556    0.71827863534399
O         6.72347049742149    0.49531695105626    1.08682450269676
C         7.57631100074417   -0.62974313470805    1.26957190659292
C         7.65961396056535   -1.52754977163410    0.05577377994662
O         8.23731751004821   -2.61220169888659    0.02740062250477
C         4.65223645960412    1.33269197190746    0.49330733455993
C         5.23045742680078    2.62583264240394    0.76523917210662
C         5.87838033531106    3.62600657270363    0.84152637664405
C         3.37985395492871    1.21706762696368   -0.09410374341944
O         2.67815783105130    2.33499770078574   -0.49100165539665
H         0.71510815705226   -0.38881612997227    0.15307757086445
H         1.34078601874682   -0.86866907128724   -1.48381955750829
H         0.90205945868996    0.90241340953414   -1.01252079434402
H         1.83722757362208   -2.48932220680504   -0.08666641933479
H         3.31084372429171   -3.35639931738631    0.30208427601962
H         4.06105981308453   -2.94744481590541   -1.73821800347741
H         5.51745933721217   -1.88716426527580    0.41652903263041
H         7.32911256539727   -1.22005361668324    2.15464210333253
H         8.61505601788672   -0.37079968624472    1.50222070357710
H         7.19469001348060   -1.00579225645296   -0.79780400524402
H         6.41273686351799    4.50882516162349    1.11810676674029
H         3.17971426944615    3.14509950818061   -0.29918960196449
