28
 energy: -47.951681766255 gnorm: 0.111144254304 xtb: 6.4.1 (79825abcba525fcdf90b791dcacef51065a7a4e7)
C         1.26578784362718   -0.19162888200899   -0.76055793799657
C         2.72005643267093   -0.12838243493321   -0.34772528142295
C         3.71362666798470   -0.99324837449268   -0.86632898235791
C         3.22502689283817   -2.09293441011565   -1.79487435905470
O         2.15408812327763   -2.78812875793977   -1.15698080342075
C         5.09197710805473   -0.92196425359449   -0.53853363002771
C         5.47220554697927    0.07802452707223    0.36701446322801
O         6.66448098912016    0.24562931320874    1.02943975381244
C         7.76780716557685   -0.63924906565399    0.86771366299865
C         8.60392782545052   -0.51654132100022   -0.38613923074759
O         9.50294832742169   -1.32427684221644   -0.61050877845033
C         4.48393729496335    0.89722293210681    0.91820027560689
C         4.86491491815224    1.92072141103460    1.86043491798664
C         5.12950860657162    2.70890285853079    2.71759995897821
C         3.16944687248774    0.97172706022902    0.42429535352318
O         2.22248317288720    1.82286076213864    0.95203034580692
H         0.61946889496862    0.53028803395875   -0.26191880054769
H         0.92682627018017   -1.23638873606375   -0.72586550182400
H         1.26212394492713    0.18511486580696   -1.79010519677978
H         3.99275426766573   -2.80897617197151   -2.06205841936601
H         2.79510977175918   -1.73417999125368   -2.73965457798470
H         2.47591300314115   -3.39418474498196   -0.46798489959605
H         5.86111317249750   -1.54777491565766   -0.97456809974611
H         7.41207716078708   -1.67172287284686    0.84830271251961
H         8.43124219093114   -0.47366118441327    1.72363597351457
H         8.29762838547338    0.22074732865945   -1.14743175970838
H         5.23496908621544    3.48609543728545    3.44303228035426
H         2.55231820460530    2.65771994027130    1.32463558442949
