28
 energy: -47.953837533498 gnorm: 0.114519275602 xtb: 6.4.1 (79825abcba525fcdf90b791dcacef51065a7a4e7)
C         1.24740132308933   -0.03898268677519   -0.85387432083634
C         2.63240184759157    0.03419621309908   -0.24910457991985
C         3.48670862192366   -1.06870444548832   -0.48971793229080
C         2.97483253987896   -2.30589994113617   -1.20913840951925
O         3.93958072639198   -3.35461744418490   -1.12810907011626
C         4.82464819135582   -1.09558433733677   -0.01899896498921
C         5.30194069910826    0.04776744860556    0.63636897527482
O         6.54531297150985    0.21046344699835    1.19848530803562
C         7.52465335535300   -0.79675206575177    0.96847866810069
C         8.10247243305352   -1.00979814365014   -0.41247698356941
O         9.00136178672083   -1.83579247128342   -0.55651701497412
C         4.52576749789448    1.20168179569567    0.76904454276415
C         4.90636286948344    2.42757432893100    1.42694565143771
C         5.34382639873539    3.44723517542422    1.86840815727038
C         3.17018336462796    1.17555945625614    0.39610043660339
O         2.44637609206865    2.33099215419689    0.59797012828313
H         0.69660357170298   -0.93785248796208   -0.57785235467155
H         1.26572755232962   -0.02081227630963   -1.95248965342493
H         0.59150708404829    0.78175084351376   -0.54063950905616
H         2.72468411653459   -1.94934428023873   -2.20100648657931
H         2.01989052841279   -2.66341116018422   -0.80119893911884
H         3.67131944876558   -4.04208921292204   -1.76136172324065
H         5.43633560526993   -1.97894565582788   -0.15628196402561
H         7.34480182555723   -1.77609022461951    1.41733608528318
H         8.38040232356138   -0.43986451108426    1.55199675750440
H         7.63323402344424   -0.50819117621344   -1.27571853749418
H         5.79719682428514    4.39769565951098    2.04863689759605
H         3.15053373554514    2.99088396326763    0.71338451967684
