28
 energy: -47.954054345648 gnorm: 0.108863921487 xtb: 6.4.1 (79825abcba525fcdf90b791dcacef51065a7a4e7)
C         1.39178106532528   -0.00440917900885   -0.69805837791483
C         2.87128903280207   -0.02937381989689   -0.38220876478322
C         3.63552244484708   -1.20789973060091   -0.20571892626581
C         2.88501680098556   -2.52448206773480   -0.32228583863677
O         2.41154831845427   -2.91500913971341   -1.61086234337491
C         5.02311173824739   -1.09711961372632    0.06760297333542
C         5.55114804013645    0.14709699557170    0.43864374989178
O         6.83760638136811    0.40221908389351    0.84895705302956
C         7.62213301732042   -0.69444732088553    1.30539377445801
C         8.22373399576408   -1.57134767332831    0.23048723779103
O         8.40376084994980   -2.77285582619632    0.41752926434566
C         4.72519889126769    1.27212724897842    0.49931404419272
C         5.18108829399968    2.60282485563717    0.81854426629609
C         5.40581948531797    3.77549097390560    0.83648274591826
C         3.44773984380652    1.23109399693244   -0.08702430214631
O         2.66348398489917    2.34879986150901   -0.27503865157336
H         0.92681708167969    0.26452472115613    0.25010630345429
H         0.91940992042181   -0.91689641498736   -1.08774312747893
H         1.13537165053411    0.76745540005856   -1.43317477037318
H         1.98491477777756   -2.53395342626406    0.28040403895192
H         3.58963214596725   -3.31182027952047   -0.02268797156837
H         2.63435767198270   -2.17157910014405   -2.19674478557127
H         5.55122372320859   -2.01691643777064    0.28761856947055
H         7.10420631688863   -1.31775236083207    2.03762703128043
H         8.43619657236770   -0.26464377723565    1.89931112945375
H         8.60653748493792   -1.09694475858306   -0.68896019286385
H         5.41869400695791    4.83951376802007    0.93183478443448
H         3.09725285552314    3.12079922858782    0.12555741296384
