28
 energy: -47.958900563337 gnorm: 0.113424809857 xtb: 6.4.1 (79825abcba525fcdf90b791dcacef51065a7a4e7)
C         1.38526043309754    0.13296299399677   -0.99720958062994
C         2.79981458945108   -0.05122148899421   -0.49278848046590
C         3.43045663189132   -1.30352533344153   -0.29746726654846
C         2.78666505684508   -2.65542426376927   -0.55849849513817
O         2.22907707577804   -2.78743954378693   -1.86570192882726
C         4.69148109337669   -1.33469530068777    0.35155267591691
C         5.32602977923887   -0.15101098253139    0.75256136537134
O         6.48506917034115   -0.10903154914465    1.48963990233230
C         7.46193255224485   -1.12311610758957    1.28020215423032
C         8.28450123769882   -0.80243909585230    0.05266435696999
O         9.50405980088927   -0.95525076687039    0.03417829274960
C         4.64595020243266    1.06426623204435    0.64229343088847
C         5.29217640877490    2.27796246144771    1.07799098316068
C         5.50688396573278    3.43410946070020    1.28582867726707
C         3.40863033149545    1.13858218838769   -0.02170556988108
O         2.88431986919892    2.39957119645180   -0.20792669190005
H         1.05737367269062    1.09458147682748   -0.60311140145114
H         0.70604183553374   -0.69262398631983   -0.74286749671050
H         1.41990175780005    0.12476431830359   -2.09295115161022
H         1.95659160064542   -2.75428421679999    0.13049585643516
H         3.50357875814742   -3.47823775742538   -0.43538951202318
H         2.83654609841114   -2.57185558003819   -2.59377844075898
H         5.21082217872828   -2.28402584319382    0.40045757435806
H         7.05098647668414   -2.13440468797154    1.24357547695221
H         8.11557963039312   -1.05981966573988    2.15707582851809
H         7.78197593490427   -0.36159305002822   -0.82489094036190
H         5.85593127541707    4.37102228248759    1.66234244002684
H         3.59883065398093    2.99243140732745    0.07948725195510
