28
 energy: -47.954872337873 gnorm: 0.104797693145 xtb: 6.4.1 (79825abcba525fcdf90b791dcacef51065a7a4e7)
C         1.37654277356538   -0.02747007651350   -1.21894094089804
C         2.68822644097064   -0.02334226520840   -0.46475464909067
C         3.42162371938322   -1.20668162736603   -0.20792570704218
C         2.70367385240702   -2.50885580961537   -0.52276857642242
O         2.50748712899843   -2.87855887630252   -1.88729912829142
C         4.66335778320949   -1.25763873585447    0.47609260819568
C         5.28260580726406   -0.05317181948890    0.83714651712935
O         6.58530445207413    0.13301212080367    1.23303936379834
C         7.50459195131863   -0.95210705302666    1.17042464875840
C         8.63377258261499   -0.77621249852089    0.18031645374973
O         9.42539810449129   -1.66380017742992   -0.13038175203855
C         4.51527115349944    1.10608200094248    0.69969074106440
C         5.14773698558522    2.33725885505559    1.10551058730238
C         5.65674435925383    3.39579885739644    1.32086213599205
C         3.25402264435360    1.15623884611292    0.07992102488110
O         2.58466611964710    2.35151113146200   -0.07160146111294
H         0.60952572596858    0.45215553772051   -0.61134129589578
H         1.06633599067187   -1.07687606646171   -1.31964092460340
H         1.46818496885079    0.53710985975098   -2.15423128859486
H         1.69587118119369   -2.43722748129837   -0.13198524362051
H         3.28018141588878   -3.28550033815000   -0.00257107797343
H         3.14264810264883   -2.45829237316778   -2.49189574705939
H         5.16104860129936   -2.21320316147500    0.58805607194358
H         7.03214591883676   -1.92460300839259    1.01560492489387
H         7.93701844390224   -1.11195063083348    2.16421825996981
H         8.67637205584600    0.23579635109662   -0.25672311987532
H         6.28820218376812    4.23513382886188    1.51625942051808
H         3.25060306701965    3.02420661375427    0.14890803353076
