28
 energy: -47.952780737157 gnorm: 0.117029083351 xtb: 6.4.1 (79825abcba525fcdf90b791dcacef51065a7a4e7)
C         0.94413825274780    0.08648495633462    0.02020117238202
C         2.44753473130754    0.08433243990286   -0.15045177256007
C         3.18305954694378   -1.12285176438604   -0.22683396225451
C         2.53374874535691   -2.49551872208428   -0.29329097395653
O         3.39733965609612   -3.62458275141015   -0.42189255551322
C         4.59658429384446   -1.14587946019961   -0.10936624106768
C         5.32687201514909    0.03921916855831    0.05430921267141
O         6.69268334951754    0.17461201945732    0.12248197354785
C         7.41119424102417   -1.01538880124890    0.42929441622397
C         8.91595332463395   -0.86907116250177    0.45365175002398
O         9.64189207143661   -1.75814226762933    0.89363099488923
C         4.60149591032843    1.23171499928268    0.11218103237520
C         5.26232422020355    2.51340779230801    0.14487229512954
C         5.65893695202414    3.62812965017152   -0.01657501785795
C         3.19562885016807    1.25417003599765    0.13246818317564
O         2.48217866080123    2.40430926793304    0.39293242354575
H         0.60943675622817   -0.29504225684814    0.98453778325124
H         0.47298293778049   -0.59027640398054   -0.70617916390356
H         0.66810730981171    1.14704025896801   -0.01055919795806
H         1.72766352646243   -2.49171858441062   -1.01697642151789
H         2.14986714545364   -2.59182942879753    0.73116122062821
H         3.66468864030398   -3.77275191128069   -1.34501816334294
H         5.17450931020871   -2.04461743317958   -0.28715280585290
H         7.34104177342529   -1.87183351012690   -0.24487460911473
H         7.16822603671675   -1.33874819875192    1.44741696993887
H         9.27055405824524    0.13774694024875    0.17516325177469
H         6.05986062701734    4.58351219311935   -0.27716410078707
H         3.17057856839018    3.08979594520316    0.36413573901996
