28
 energy: -47.957873740758 gnorm: 0.109808011704 xtb: 6.4.1 (79825abcba525fcdf90b791dcacef51065a7a4e7)
C         1.16923329089111   -0.05000796599604    0.27822866969616
C         2.67515751223558   -0.05256278574132    0.13155295930232
C         3.41186209254024   -1.19690532084266   -0.25815364763775
C         2.75775379585184   -2.56604923696835   -0.34660089791186
O         3.19902724325603   -3.27980337636995    0.80793190637373
C         4.81801712266827   -1.12407061257949   -0.43079289197905
C         5.46203291862541    0.11627717773465   -0.32425835700808
O         6.76003404717535    0.33037549686838   -0.72146655270398
C         7.74879505895086   -0.67778112217680   -0.54128434926235
C         8.01196573594269   -0.98819846350001    0.91497259975340
O         8.10950233681583   -2.10164732488310    1.42657251653419
C         4.70500097144663    1.25758026019746   -0.04876627794189
C         5.42841984304323    2.49884508887646   -0.17693013280570
C         6.06866164290973    3.48535940364819   -0.38393658488944
C         3.34384269485777    1.18587546583262    0.29689913665128
O         2.56813036419695    2.29107929861784    0.57342747855024
H         0.82978427839564   -0.70834365567667    1.07754193566840
H         0.70123995006995   -0.37094247910088   -0.66283718197938
H         0.83953010959219    0.98716358807138    0.41047016326596
H         3.12171706884746   -3.11975400063565   -1.20360161136464
H         1.65958941867331   -2.55466665397481   -0.35356983773767
H         2.73731409461217   -2.94470520838848    1.59540930613457
H         5.32651951335048   -2.03363231590363   -0.72652616106843
H         8.57045159998617   -0.20739613227169   -1.08584038592108
H         7.50306904333961   -1.60900361849863   -1.06340671989500
H         8.05295494748837   -0.13625981244124    1.61461582004016
H         6.64288721331090    4.38573176045328   -0.35236306892213
H         3.22792055667139    2.99982931509482    0.48996500663126
