28
 energy: -47.956343648401 gnorm: 0.114002319915 xtb: 6.4.1 (79825abcba525fcdf90b791dcacef51065a7a4e7)
C         1.03216763067051    0.16111583885084   -0.39394087196136
C         2.53419460670284    0.05168533618905   -0.24810545792774
C         3.24342737976234   -1.17305447004730   -0.28166113834224
C         2.63024769534848   -2.39713481799752   -0.94186838211071
O         3.36098407177641   -3.62302655576833   -0.92378508703071
C         4.63835982097610   -1.20672713120869   -0.02590580523714
C         5.27930511434271   -0.05535442654996    0.45169088250869
O         6.55153621173673    0.08826094388488    0.95091229237303
C         7.41405423873516   -1.03820049696122    1.06770700820690
C         8.49711693641385   -0.93673382870597    0.01747763267549
O         9.66462268037700   -1.28071022252123    0.18960203207063
C         4.60982842039255    1.17006465536831    0.41027841205279
C         5.15615861325958    2.42647628026257    0.86133534465182
C         5.78022549449944    3.38568225754780    1.20256275429991
C         3.27652565647417    1.23916460257848   -0.03120425760487
O         2.59663712800416    2.43772568755138   -0.06080103367836
H         0.63438766255657    1.01182219334259    0.15887284297123
H         0.55242628341055   -0.71879719597989    0.05686169687590
H         0.71308139080107    0.22888339405175   -1.44060622308964
H         2.45868383374474   -2.10338873123274   -1.97035636477227
H         1.67309635753484   -2.62145071961614   -0.45229017582700
H         4.16849708864462   -3.52545044739781   -1.45669417705938
H         5.04359261525121   -2.21105789059820   -0.00489533106997
H         6.92057878227468   -2.00770796050071    0.97044429400641
H         7.81604566822942   -0.97692241848534    2.08496620389520
H         8.03586103172169   -0.53750197220779   -0.90167259003102
H         6.29406407881364    4.31266642661180    1.33699687281048
H         3.28599095908252    3.09283573951732    0.13979254096885
