28
 energy: -47.952183152821 gnorm: 0.111658498797 xtb: 6.4.1 (79825abcba525fcdf90b791dcacef51065a7a4e7)
C         1.04137816873927    0.26027968062527   -0.30645188840256
C         2.48286275422950   -0.01866956920445    0.05911279343404
C         3.14499511015876   -1.26832156872075    0.12295091365156
C         2.46485264861501   -2.58885204051756   -0.19929296319262
O         3.42547226406307   -3.56572814527818   -0.59933826267216
C         4.51663525364309   -1.21916868236147    0.48151534401613
C         5.23835507717861   -0.03135796582094    0.66260857759204
O         6.57100087559843    0.04070645607912    0.99014673485418
C         7.39398097949160   -0.95991968338505    0.40027826898696
C         8.86403566357843   -0.68449251654784    0.17805961417967
O         9.64469974156933   -1.60980384563104   -0.03496332201751
C         4.62238056177394    1.17991959427270    0.33865176485896
C         5.31533399383294    2.44491587457989    0.34860883033117
C         5.71658185466910    3.52007883570961    0.01846267966948
C         3.23408972213551    1.18164040698135    0.11499225293910
O         2.61011419080634    2.36942225841403   -0.20044689736704
H         0.47970068347396    0.54839243340985    0.58182883861081
H         0.45333028506855   -0.55907362541802   -0.74289375637942
H         0.91880248354069    1.13643214324770   -0.95394620555254
H         1.67029446972375   -2.39236849468021   -0.90892664610576
H         2.07218165355130   -3.08749303059313    0.69698253884183
H         3.75709234410399   -3.31317841950263   -1.47788093449040
H         5.06028518410202   -2.14761478584143    0.60708570485260
H         7.03859967852760   -1.31971027069095   -0.56780109144786
H         7.39271755839982   -1.86309222315181    1.02031548471399
H         9.13337184401079    0.37247046917393    0.01293092521293
H         6.21503747210694    4.46498875614270    0.00900165484103
H         3.26341581522497    3.08701915834791   -0.14689934888878
