28
 energy: -47.958132258140 gnorm: 0.100498068864 xtb: 6.4.1 (79825abcba525fcdf90b791dcacef51065a7a4e7)
C         1.55035541639786   -0.06210282553329   -1.08120976319200
C         2.83650795445241   -0.11177800320588   -0.28580290324496
C         3.67356123951632   -1.24880534913977   -0.18267521422030
C         3.14188034478433   -2.59346791118720   -0.65111266683473
O         2.75912101087129   -2.63897054045081   -2.02535355347348
C         4.97291182030955   -1.05374632315807    0.35213428254493
C         5.46996273500333    0.22000361633134    0.66046860685793
O         6.79658644386229    0.43703637987055    0.94575034477767
C         7.71936465637977   -0.61628274125338    1.20166620174635
C         7.80550788492173   -1.59367443823153    0.05119375752811
O         8.26391265184338   -2.72391780617688    0.20426638352209
C         4.61595582419752    1.32555161919515    0.65914061490517
C         5.02442950862539    2.63869707819517    1.09422387283918
C         5.38673550340728    3.73146289735448    1.41134994295548
C         3.29835320033522    1.13413692210711    0.20674505646988
O         2.39775716427366    2.17744108299433    0.19596257773876
H         1.13499566751463   -1.03692354740299   -1.33563862564367
H         1.80519358045389    0.42575923446986   -2.03235107202284
H         0.86473337336122    0.63631145000634   -0.58718876517137
H         2.23663525331933   -2.89428946024387   -0.13774518696951
H         3.96803373945813   -3.30974180460173   -0.54832449952513
H         3.48163474906196   -2.33947302325140   -2.60316459765120
H         5.64865666744384   -1.82368801578395    0.70412011841992
H         7.59067983277636   -1.11664276017819    2.16395662044693
H         8.67572644147030   -0.08542878583077    1.26277755365900
H         7.42889843335940   -1.26872114115053   -0.93346399579428
H         5.55520026438084    4.75504962156541    1.66687315017804
H         2.81572646596541    3.05489039064769    0.19577008253839
