28
 energy: -47.957363868550 gnorm: 0.105561643692 xtb: 6.4.1 (79825abcba525fcdf90b791dcacef51065a7a4e7)
C         1.10460562887889   -0.09794671250292    0.08667159200936
C         2.61222400721725    0.02298236229595    0.04435095844443
C         3.39539298258834   -1.15594230868555    0.01422297640491
C         2.72107336642530   -2.50933276741840    0.16869938566585
O         3.54813157683021   -3.63460026037613   -0.12602252093410
C         4.80261283430541   -0.98609142349884    0.07135559662068
C         5.34732079681335    0.30497828013787    0.10299179519454
O         6.69525855698392    0.44446987327252    0.33108226209772
C         7.61834684297525   -0.53013292567076   -0.14278600305297
C         8.03484957102022   -1.61200851300733    0.82797283519402
O         8.81453114619814   -2.51935037606694    0.54540671015174
C         4.60203502997680    1.46209871060489   -0.13614710270253
C         5.26305807948074    2.74401340336214   -0.12057624306600
C         5.89290226505143    3.75852165136454   -0.12698245364761
C         3.20540515536184    1.30112330798673   -0.10631548990592
O         2.40942219327224    2.42547733766444   -0.15004419834669
H         0.81453524282716   -0.37828575463920    1.09899683824266
H         0.81471676883913   -0.93645444052208   -0.56178111067156
H         0.64934605825229    0.87016662325506   -0.15293668016450
H         1.84939422535110   -2.63172150237333   -0.46273146921905
H         2.46698143414156   -2.54868338550427    1.23642217289468
H         3.97894070332655   -3.42747959054665   -0.97283713656871
H         5.47486898680179   -1.78767686496879    0.35218968916014
H         8.48244496100387    0.07511564080404   -0.42550742403713
H         7.26638279352530   -1.00323810927962   -1.06607424354557
H         7.54755223634038   -1.62764356265156    1.81755712592432
H         6.52576976097162    4.56120684129645    0.18378674008280
H         3.02500506476718    3.17477899435529   -0.08507942113261
