28
 energy: -47.955616380965 gnorm: 0.113969380392 xtb: 6.4.1 (79825abcba525fcdf90b791dcacef51065a7a4e7)
C         1.31880283681778    0.04046838168030   -0.89692480143719
C         2.68980002081035   -0.05262867433432   -0.26365732803926
C         3.69350482436406   -0.97302789475668   -0.65039579301766
C         3.31754018742623   -2.14402945794146   -1.54350360190623
O         4.21655456729239   -3.23464590197418   -1.34490316844340
C         4.98039448127547   -0.96813192471262   -0.05351038629946
C         5.36522207541260    0.08066470580900    0.79295397647927
O         6.64814627458947    0.24464352709444    1.25731998470241
C         7.63701248979799   -0.73227262190029    0.95028224809002
C         7.70077072595475   -1.11424333925351   -0.51133852606953
O         8.22915398837912   -2.18226387132367   -0.81326484321517
C         4.44698455070500    1.10722470558541    1.02657837387626
C         4.88809067592191    2.40904723959064    1.46382277341117
C         5.20431603665709    3.46156417368498    1.93092162449668
C         3.13919678672491    1.04370711271772    0.51370931831929
O         2.22294535866336    2.03355903126111    0.79716927434669
H         1.03134115199391   -0.86206054027899   -1.43575736374609
H         1.30142700535876    0.92200472376491   -1.55283136622192
H         0.52776404834868    0.05901958711707   -0.13808996068520
H         3.42800494653914   -1.96870649945269   -2.60678524137711
H         2.28201779318370   -2.49077551161229   -1.42686882848607
H         4.36971884069940   -3.25375526892789   -0.38481671083615
H         5.63926043571902   -1.79818928125494   -0.27764375911849
H         7.40118430703111   -1.63360294749644    1.52029233244486
H         8.56342738828353   -0.25685428463054    1.29072493542110
H         7.33715404722879   -0.33146135322000   -1.19837235962111
H         5.60533430640687    4.35825908732439    2.35107022287977
H         2.66661292998959    2.64826579720091    1.40537182476841
