28
 energy: -47.951842064642 gnorm: 0.113156955647 xtb: 6.4.1 (79825abcba525fcdf90b791dcacef51065a7a4e7)
C         1.34248927594497    0.09497258265677   -0.70284994544638
C         2.77912583867277    0.04664848163381   -0.23054898197245
C         3.42612155059605   -1.17067032618226    0.09140778030826
C         2.99702541941463   -2.55375498094873   -0.37031612256603
O         3.95820972411966   -2.94248334832319   -1.35119746357940
C         4.64013521695054   -1.04266580645378    0.81401888444050
C         5.29047744185980    0.16947212570165    1.08298950453603
O         6.55281892182146    0.27441374267041    1.61581273673030
C         7.31661973319637   -0.90594178762540    1.39251276750418
C         7.31981996763494   -1.54806356276460    0.02358201146822
O         7.82290299140908   -2.64109316645527   -0.22783395127160
C         4.73955882887659    1.31374707052574    0.50101915696570
C         5.41841472497917    2.58440358026891    0.42970360483709
C         5.75668035142319    3.71297470907286    0.23508784162758
C         3.47457981587035    1.27566897912134   -0.11197036716875
O         3.03869487133891    2.43522273714959   -0.71621571704180
H         0.80184606049098   -0.58719806435210   -0.04719658306211
H         1.22056602182361   -0.26294317185590   -1.73467003339372
H         0.89804076988597    1.09684699172513   -0.67774973711543
H         1.98076074322741   -2.54156109877588   -0.74523726651545
H         3.07897096421087   -3.30678222170922    0.42490587515362
H         3.98759658008893   -2.20904872591744   -1.98900663261910
H         5.15713973881467   -1.94215409243864    1.12540687966171
H         7.25143700409545   -1.73511116497459    2.10043376540646
H         8.32703920730251   -0.51420485353220    1.55302147767413
H         6.90857884752673   -0.89458684697227   -0.76434510367344
H         6.22435388742264    4.66290559706992    0.09255699166356
H         3.73506248136792    3.11209313249423   -0.67704580683317
