28
 energy: -47.954113123649 gnorm: 0.119262957805 xtb: 6.4.1 (79825abcba525fcdf90b791dcacef51065a7a4e7)
C         1.09406904658019    0.08952579142335   -0.18486379895431
C         2.58909990176067    0.07935831118236    0.04774614559725
C         3.41498540670506   -1.06739439389670    0.13138856078947
C         2.73287617676311   -2.39945322411519    0.39706107987092
O         3.65533423190897   -3.42988107546863    0.74976887782453
C         4.82234078408763   -0.93488541327861    0.25044040703834
C         5.56304430394416    0.24492868840023    0.09563234109137
O         6.92071597657931    0.45151672350236    0.14531482634119
C         7.69752731390884   -0.65417318812085   -0.30246602537806
C         7.84533778436196   -1.88777658105962    0.55932093239469
O         8.31072918064672   -2.89932817568494    0.03856144008197
C         4.75264709179545    1.38280755577685    0.10297944278671
C         5.23534544838731    2.71961830697490   -0.14286298316857
C         5.47274346118492    3.88986714428499   -0.15433269229171
C         3.35264912540085    1.27304329862035    0.02993503207645
O         2.61001876780772    2.41142267997011   -0.19868164201405
H         0.64599320734257   -0.59067402927642    0.53907642821995
H         0.94078693339652   -0.30402614588356   -1.19938000452178
H         0.73605191023070    1.12129214338589   -0.08895367179062
H         2.05982053995368   -2.71546714160713   -0.39074584917778
H         2.16383498389358   -2.27028368866629    1.32746447624506
H         4.33441520857562   -3.46732688118937    0.05476002418914
H         5.44234901210907   -1.81273624923043    0.38572911971667
H         8.70996852399743   -0.27019243132336   -0.44544979897331
H         7.32030666438757   -0.97438198667876   -1.27988061890917
H         7.64652009890133   -1.81530894678008    1.64200287286599
H         5.59576647017865    4.94682019914768   -0.24982009440569
H         3.26386537484555    3.12170980993780   -0.31089782554555
