28
 energy: -47.953625922393 gnorm: 0.120292397025 xtb: 6.4.1 (79825abcba525fcdf90b791dcacef51065a7a4e7)
C         1.22002831438047    0.02900614706319    0.48052833875334
C         2.71040210072533    0.01810189902320    0.21976958723704
C         3.38849534019343   -1.19342312604012   -0.05685540334669
C         2.71630641365092   -2.54417960076566    0.12714087676795
O         3.51735686004236   -3.56396967635704   -0.46906345349757
C         4.76782986297724   -1.20457043816241   -0.38805501028467
C         5.45720804798489    0.01437849050549   -0.44712968552366
O         6.74799643782283    0.11876154306675   -0.90690014837079
C         7.62517211850380   -0.85491736087827   -0.35101710672396
C         7.60787284667673   -0.73181345892391    1.15591626951640
O         8.04290081431651   -1.58900608881301    1.92206749093932
C         4.78662870488603    1.21332819406876   -0.19334055913253
C         5.41798746893952    2.50966238487245   -0.15588402355368
C         6.17606159905441    3.42727427612282   -0.05953174810886
C         3.40629638393979    1.24386829554850    0.07335776920042
O         2.64050196828509    2.38340073334174    0.19459220327712
H         0.75227771588572    0.64678633814681   -0.28568979232531
H         0.99533020134520    0.40259623849071    1.48927155072499
H         0.90494279516745   -1.02031570764222    0.52004536582923
H         1.71094772849838   -2.67001759419879   -0.25616991357553
H         2.81198606480954   -2.87833558986513    1.16893179090466
H         3.49067972708804   -3.45627238527566   -1.43512768155123
H         5.38526829765207   -2.09288555690417   -0.33327025558976
H         8.59240062819349   -0.66089192375214   -0.81978776231600
H         7.31914799364339   -1.87383744625252   -0.61239705747808
H         7.10928364615215    0.19748874186718    1.47962361588209
H         6.66283467135693    4.35810604485201    0.13542073471347
H         3.19189691720907    3.18372181978325    0.18650326800527
