28
 energy: -47.950570393845 gnorm: 0.119820984851 xtb: 6.4.1 (79825abcba525fcdf90b791dcacef51065a7a4e7)
C         1.08096819727796    0.04092292447802   -0.06589413881310
C         2.59219908990036   -0.03161678200577   -0.05017112795748
C         3.38653385784184   -1.19595009129257    0.08205940472560
C         2.57673659534496   -2.48217583291391    0.07271288429864
O         3.32646364052255   -3.63234137621913   -0.31734069210871
C         4.80375491427037   -1.14009226692459    0.05475520189477
C         5.42559524169497    0.10024475002150   -0.14385813794932
O         6.75970864047667    0.37422980150808   -0.32686903326326
C         7.58137403980138   -0.78677046367915   -0.38550425719451
C         8.05143558928918   -1.22994535006044    0.98158761714442
O         9.12936248451805   -1.77505917956668    1.20949275517466
C         4.67458435014028    1.27763569320435   -0.10781420698841
C         5.33972045388049    2.54949891895276    0.03521408628718
C         5.75895566491750    3.66591681331582    0.09705776984099
C         3.27943004633216    1.20351664705750    0.05164997989572
O         2.55260405574396    2.35450002039323    0.26759974088532
H         0.89046719512222    0.61548691479746    0.84026191903771
H         0.56404585720043   -0.92833038744009   -0.03489459431424
H         0.79664339665919    0.58502178897737   -0.97420722623938
H         1.77065477413319   -2.31855825749927   -0.63224799243851
H         2.19080446783194   -2.78169440218634    1.05632263589491
H         3.81546361583650   -3.39287451011650   -1.12302370194013
H         5.47255561122394   -1.98846128005848    0.13419682509513
H         8.48178748648494   -0.50516980379964   -0.93584913094515
H         7.12800476296309   -1.65379107408293   -0.87835305917858
H         7.37433299237282   -1.07549007169324    1.83870829507386
H         6.06597912435478    4.57418216823179    0.56843120259751
H         3.28780814376497    2.98371960275400    0.35800623785740
