28
 energy: -47.956879702509 gnorm: 0.110910160822 xtb: 6.4.1 (79825abcba525fcdf90b791dcacef51065a7a4e7)
C         1.34943706000366   -0.27336102052870   -0.48300592961096
C         2.82709260119617   -0.04019411287484   -0.25608010710436
C         3.67201092458560   -1.17398218420145   -0.32508975306250
C         3.11124541229245   -2.55863993662994   -0.60526928926448
O         2.45151946098117   -2.57029410674154   -1.87086759183592
C         5.04528502463364   -1.01912161698824   -0.00490605835135
C         5.54494193362680    0.22600606029665    0.40076450666860
O         6.82608334358532    0.52681370512512    0.79650533185236
C         7.58964052321617   -0.52487020919636    1.37739698025280
C         7.89578540975164   -1.71834595302024    0.50093078747435
O         7.98884239264007   -2.83008880585764    1.01705524633522
C         4.72475408449290    1.35243416620027    0.30067672385147
C         5.28586702087398    2.67340903723319    0.44447120620450
C         5.68108444355253    3.79642420457972    0.53727119237640
C         3.34677552532742    1.24399792247893    0.04223010047028
O         2.53411217583357    2.35050946291708   -0.07976797092831
H         1.08170119313652   -1.01417689815736    0.27001634966201
H         1.16085333223781   -0.61324071769821   -1.51088706664127
H         0.79249822334326    0.60595593881178   -0.13871296317770
H         2.37690387004278   -2.83104101520160    0.14309466061245
H         3.82931003875486   -3.38953101853421   -0.59317277556318
H         3.10060093711941   -2.70965947825346   -2.58140330422105
H         5.66922097374638   -1.90336924370446    0.04141234926739
H         7.25277454377842   -0.92341066117218    2.33688100981119
H         8.54216196568578   -0.00643863424508    1.53263868857196
H         8.21201353097150   -1.55927529305611   -0.54390246034387
H         6.09029219146293    4.72429036742611    0.87344922807472
H         3.02826722886383    3.07376860170278    0.34132900767644
