28
 energy: -47.947422810916 gnorm: 0.114994171703 xtb: 6.4.1 (79825abcba525fcdf90b791dcacef51065a7a4e7)
C         1.33429620836450    0.11018644028881   -0.99173662726622
C         2.69508668983243   -0.01385717590652   -0.34197475766914
C         3.45524100754820   -1.20813003936085   -0.34353992172731
C         2.94005567903642   -2.41228609688515   -1.11479078617907
O         3.80156960242292   -3.54461794425338   -1.00195656448998
C         4.79076183877058   -1.09366462328560    0.12085530762656
C         5.36094609622762    0.02357405820620    0.74634408547080
O         6.58938155305268    0.00462359486857    1.36197916554863
C         7.66063330189999   -0.89882542690856    1.11159291299713
C         7.81202090958663   -0.99221169868338   -0.38996055798388
O         8.84531317046148   -0.98242973224452   -1.05571400029600
C         4.58392467316291    1.18280049050849    0.80957173245778
C         5.05318843025090    2.38745229879698    1.44918468468796
C         5.44179799907582    3.35688539538181    2.02810936314513
C         3.32767437438474    1.14224999135531    0.17904113292703
O         2.52925211446595    2.26371475207768    0.24621063467739
H         0.63502759999604   -0.56551182156009   -0.49981337995788
H         1.33663361898989   -0.05682431155420   -2.07788744892941
H         0.89478589704948    1.07984364815857   -0.72998786224957
H         2.85178187523490   -1.98962996774560   -2.10830877194243
H         1.92810648287705   -2.67591565618458   -0.77922945607431
H         3.37359894799424   -4.31202730040398   -1.41850724214744
H         5.41546879209479   -1.97752882593390    0.07772027427058
H         7.47640056591750   -1.91004815465193    1.48092971713005
H         8.55302775526200   -0.51811506722682    1.62037591382002
H         6.86247580401076   -0.81350905956271   -0.92232291109996
H         5.79837795419177    4.22755674799563    2.53425597782221
H         3.01059051656836    3.10804008559583    0.23959737013483
