28
 energy: -47.957350878509 gnorm: 0.111363296253 xtb: 6.4.1 (79825abcba525fcdf90b791dcacef51065a7a4e7)
C         1.24235281430988   -0.00121514706897   -0.85830531624441
C         2.62557698011915    0.01533441469039   -0.24532483818251
C         3.53642063411001   -1.03877951204556   -0.49698410380598
C         3.09624282013441   -2.32108563449594   -1.18413047834956
O         4.06460267950941   -3.36260449994462   -1.06317241571928
C         4.90486307573167   -0.88500676476992   -0.15624902667022
C         5.38522040884265    0.19910693175666    0.59109487586949
O         6.62748987371199    0.20706955972169    1.17856617605722
C         7.48338426689372   -0.92217184825383    1.04162692311755
C         7.90572570748725   -1.22081472312386   -0.37919754537581
O         8.82455721229092   -1.96680493105165   -0.71125703511686
C         4.53227101131461    1.29571933665256    0.73767086438213
C         4.92942266227465    2.49614567352980    1.43175038164238
C         5.36742764317734    3.42764048950715    2.03709389141196
C         3.18918988118489    1.17717544144175    0.33834840350144
O         2.35118267900800    2.27025440455230    0.38929314781978
H         0.77006677493855   -0.98329396437946   -0.85885337582433
H         1.33374662006153    0.47239641250503   -1.84570641558176
H         0.57538618503579    0.59872435653688   -0.22811094864263
H         2.82749757248913   -2.03048518673132   -2.19251325530681
H         2.18845313588506   -2.61181377449952   -0.63865988247591
H         3.87023757489070   -4.04550854465283   -1.72759302066350
H         5.61112941709723   -1.64509257908376   -0.46736435987502
H         7.03184593854174   -1.77717080073194    1.54957644197730
H         8.34800097839327   -0.67336251510775    1.66668711321216
H         7.40856014005269   -0.49564597139693   -1.04548344209588
H         5.73430415095163    4.21022395377297    2.66508037196636
H         2.80107763682298    3.03543802919948    0.78515197494736
