28
 energy: -47.951578989408 gnorm: 0.111640863176 xtb: 6.4.1 (79825abcba525fcdf90b791dcacef51065a7a4e7)
C         1.12175977042907    0.05651162751744   -0.75767027666069
C         2.55533816008925    0.02353110644209   -0.27487288980040
C         3.31784986150870   -1.13640007705563   -0.55283016217536
C         2.91493696281176   -2.42634415585675   -1.24848890840361
O         3.76668756427327   -3.47477069802642   -0.78758120189868
C         4.65003226985390   -1.13981727190780   -0.06532681855295
C         5.22829603750921   -0.02530621675134    0.55760551790617
O         6.53768857806850    0.21629127343497    0.89751902174244
C         7.49463892806300   -0.83603174273565    0.83958777382118
C         8.41493417169609   -0.72077971431505   -0.35459632683639
O         9.54209072508028   -1.20793700454244   -0.29792085499773
C         4.46936167701925    1.12774713975839    0.77220413178855
C         5.18002915536117    2.22198652928954    1.38709525037079
C         5.59236014672085    3.27218968131083    1.77828345459089
C         3.12365144163531    1.15303164116870    0.36501542690730
O         2.40292403592129    2.32693402057270    0.41168717167606
H         0.52704734216620   -0.61478202694832   -0.13862652511484
H         1.02494156847520   -0.18611522686497   -1.82508776999229
H         0.62899141385607    1.01667010930679   -0.56481835747166
H         3.01795335466052   -2.24891067130046   -2.31216810480709
H         1.86394608979102   -2.71373151346633   -1.11075795901352
H         3.33913099320853   -4.31093185231666   -1.03981199098324
H         5.20259491747040   -2.04557303378212   -0.28353853845651
H         6.87624953886941   -1.72584882084181    0.70268299734885
H         8.03653524903202   -0.78634071626482    1.79040193176017
H         8.01515588925323   -0.32108000283874   -1.30190708974479
H         6.03350520748303    4.12202040334427    2.25218328421953
H         2.81316755195372    2.97566610890731    1.00789401161987
