28
 energy: -47.951717840710 gnorm: 0.117304083280 xtb: 6.4.1 (79825abcba525fcdf90b791dcacef51065a7a4e7)
C         1.04138267631011    0.04726392477646   -0.62749752055749
C         2.50329333289238    0.05316793370870   -0.23748419283323
C         3.22868972072756   -1.16055342077063   -0.16816434326719
C         2.62965149945981   -2.51579346677809   -0.50685778723768
O         2.94130206682418   -3.62021574514699    0.34181091325765
C         4.62821400770128   -1.18474032714600    0.06233059562191
C         5.27167592852137    0.02066873592309    0.37460342970333
O         6.56049169873075    0.03239079779694    0.85129605577595
C         7.38837374536848   -1.10901173747795    0.65557865948638
C         8.71259918705985   -0.57738482983488    0.15547682525577
O         9.68227522013607   -1.29765951834454   -0.07244639614998
C         4.58945313931649    1.23748699903808    0.30049988308460
C         5.28330198607331    2.49529947175637    0.43081014890133
C         6.10368042086768    3.34090895991275    0.23614236339226
C         3.21628475817803    1.25499100475880   -0.00195705287123
O         2.55272345855836    2.46028815551923   -0.08330951817952
H         0.58713269884132   -0.62308855725970    0.10176081407545
H         0.85732913215196   -0.41640873509968   -1.60665716872328
H         0.45013579029709    0.96823083709860   -0.69202568777046
H         3.13636957819424   -2.79159709984655   -1.42374251170827
H         1.55217919366857   -2.49615396684233   -0.71854350442053
H         2.65368187763862   -3.36943925691222    1.23622482610574
H         5.07488655469105   -2.14897263878854    0.27227110500961
H         7.04724096293621   -1.83803268464258   -0.08271644908367
H         7.58585842803987   -1.68864601266389    1.56397961066974
H         8.81153884371001    0.51486455904261    0.03638680252440
H         6.83377805346892    4.11330513314847    0.34460376115440
H         3.23773845635589    3.08294913885699    0.21277057111371
