28
 energy: -47.951271963738 gnorm: 0.122309739639 xtb: 6.4.1 (79825abcba525fcdf90b791dcacef51065a7a4e7)
C         1.27843347975561    0.07582714261681   -0.84354056769711
C         2.72971695663717    0.09679461893293   -0.41614768208108
C         3.55601794462728   -1.03717824120583   -0.60444780989885
C         3.13558201945315   -2.33901798119604   -1.26677896874703
O         4.07396208903261   -3.38323357725677   -1.00954395385086
C         4.82360720615530   -1.11956896712007    0.02706656143553
C         5.32396701431144    0.00593963951614    0.69597539517225
O         6.57683675481931    0.27401934319018    1.19283559614863
C         7.47268731836616   -0.81822763424704    1.01693207697870
C         7.78619713219630   -1.05744602484851   -0.44278988085051
O         8.72647396234342   -1.80389708490557   -0.70680982222128
C         4.54324224240210    1.15866760306688    0.81109730530945
C         5.02345900686797    2.32371597527657    1.51291876969801
C         5.36570687626185    3.37831088018573    1.95639110553380
C         3.23614772938609    1.21279127095338    0.29539140571745
O         2.44059803691036    2.33484441549297    0.38354173265893
H         0.78339095036430   -0.84918607909314   -0.54889392954786
H         1.14830884332754    0.39011291487716   -1.88848731106443
H         0.68974485906379    0.84394090718895   -0.32840584511962
H         2.98794523696589   -2.16890335884952   -2.32638873064455
H         2.20527124820342   -2.62525315862825   -0.75811953026096
H         4.07990278519970   -3.94903673807478   -1.80038019492485
H         5.37318197715891   -2.04297996105513    0.16350352613482
H         7.08126758636865   -1.75785313537560    1.41293371597140
H         8.35296576899501   -0.63475478122391    1.64272433193410
H         7.15810581443576   -0.48710278268403   -1.14790696327724
H         5.77428307435640    4.29819160426560    2.31456315760277
H         2.83557011870429    2.96723801219951    1.00699265833650
