28
 energy: -47.954688405206 gnorm: 0.122258682704 xtb: 6.4.1 (79825abcba525fcdf90b791dcacef51065a7a4e7)
C         1.08711112513402    0.03406648369451    0.06904067415400
C         2.60007846181891    0.03796349294358    0.08461880319563
C         3.45139634279273   -1.08596867366391    0.21173700197929
C         2.90065533370020   -2.50248034585659    0.23209998318470
O         3.86194022083872   -3.55722827390686    0.25558158473155
C         4.86572320789498   -1.03724237897504    0.11331740257988
C         5.41965338470579    0.24965873473226    0.07312461611150
O         6.77243034057409    0.44169482935335   -0.07362688723350
C         7.71016588359305   -0.61950977993037   -0.21850805949988
C         7.87926264429507   -1.56618021777985    0.94833528706270
O         8.15056334217672   -2.73894463774111    0.69926546520391
C         4.62385075185604    1.39271057375478   -0.03502629138296
C         5.30242221920646    2.65463573217758   -0.20111318880436
C         5.54572913793779    3.78536087457304   -0.49815547371521
C         3.22202680393163    1.31049035569670    0.03918588065688
O         2.50431601673517    2.48316596082544   -0.05774808351371
H         0.81225395452158    1.02645406326328    0.42562676085198
H         0.61742997929111   -0.82433892266477    0.56920208654526
H         0.71669691202550   -0.10830054946635   -0.95293866328210
H         2.24894578652590   -2.65580669036178   -0.61953030502428
H         2.26147845526082   -2.50702379329213    1.12517075569626
H         4.11177516022516   -3.72187270840477   -0.66965632059730
H         5.49788417518404   -1.91652567358583    0.13716539885927
H         8.66138677686588   -0.09186880558182   -0.31697937529499
H         7.46415888260159   -1.20800998818485   -1.10919119114945
H         8.04984464052103   -1.10510964086377    1.93590600379401
H         6.04976482902183    4.72386050002276   -0.57920328833203
H         3.09189805124684    3.22425439991407   -0.28169213811494
