28
 energy: -47.955137121898 gnorm: 0.117904055803 xtb: 6.4.1 (79825abcba525fcdf90b791dcacef51065a7a4e7)
C         1.20538979162567   -0.01015367907976   -0.30237626700057
C         2.71158200271772    0.00067653551499   -0.15886397682286
C         3.47878540875538   -1.18791455152309   -0.10618688201332
C         2.81344325408293   -2.51386670627422   -0.43695317245958
O         2.75514579240922   -2.58931995810816   -1.86103934736234
C         4.85588464687716   -1.14711222391040    0.23191668791084
C         5.45561552186328    0.07748208205422    0.55635504466897
O         6.63835548749170    0.15573651000590    1.25164043371306
C         7.41697041097808   -0.99151757828280    1.57422466264036
C         8.22042513042165   -1.46091968676931    0.38240915461368
O         9.00670849506207   -2.40575105313326    0.39067894524657
C         4.74491985629886    1.22814424280863    0.20642044443635
C         5.41717169215227    2.50429859981467    0.20901659526110
C         5.76105767156671    3.64188608527455    0.32567368077179
C         3.38291255717096    1.24858000460676   -0.14271635320051
O         2.72403388534085    2.39526497515781   -0.53087292263586
H         0.85142558128521    0.92195334580191   -0.74217058532784
H         0.74277164930021   -0.05025367084356    0.69361475291180
H         0.87218824228632   -0.82381742792571   -0.95723874152917
H         1.85437869122986   -2.66021392959929    0.04500751466096
H         3.45058108395622   -3.36180089538923   -0.15198628627880
H         2.43096544703964   -1.71410714921162   -2.13398643375841
H         5.30493211716012   -2.09220089619871    0.51209361461320
H         6.74718497122635   -1.74811294988137    1.98880118464333
H         8.03482702943325   -0.63695160749670    2.40651340702062
H         8.14245189252828   -0.73843255014321   -0.44759851262900
H         6.12968960796751    4.64400084925486    0.28991378505414
H         3.11157613462566    3.18197415245529   -0.11192741709056
