28
 energy: -47.943028390294 gnorm: 0.123134306336 xtb: 6.4.1 (79825abcba525fcdf90b791dcacef51065a7a4e7)
C         1.35276131741178    0.08435481843532   -0.90619313190796
C         2.74943914908103   -0.00141626298021   -0.33063913696907
C         3.66655391419300   -1.06454258597769   -0.51171270786520
C         3.32032110417171   -2.30184297628915   -1.32377565296008
O         4.10765593959031   -3.29964872765815   -0.67446774169772
C         4.97343124783226   -1.06126180226776    0.04004995975478
C         5.34677508835592    0.13549761933606    0.66690707826971
O         6.62574435366674    0.28407903032930    1.14709511397492
C         7.43775909039747   -0.87792270832267    1.01718066494421
C         7.69615119499320   -1.08609793984976   -0.45801377271014
O         8.29077551487090   -1.94855257241172   -1.10113907619538
C         4.48041917713762    1.20693997063667    0.89713454063818
C         4.90849112224756    2.40872133831675    1.57016882625137
C         5.35107849044092    3.39659619863814    2.07434280236356
C         3.21302999858330    1.18610009181126    0.28830913327603
O         2.39046776127301    2.29127437253336    0.32898135897951
H         0.55165022861987   -0.43477985384784   -0.38059497805326
H         1.35654604085742   -0.19417260980293   -1.96922173636660
H         1.15296035409622    1.15690490968522   -1.01404817804172
H         3.55234868465429   -2.37017119916606   -2.37971263249217
H         2.25412212474707   -2.55866043784498   -1.26540051485110
H         4.10831014644531   -4.11100906154121   -1.21045696705756
H         5.50280959756537   -2.00305579007529   -0.03816756579979
H         7.08141689701871   -1.71518707633676    1.62127619132669
H         8.37960163171231   -0.55968617887080    1.47742682086570
H         7.20921561464746   -0.28656518241248   -1.04164150316404
H         5.76740580390280    4.25392894263060    2.55709988595778
H         2.50146798485549    2.75123656525680    1.17793918782156
