28
 energy: -47.957366462718 gnorm: 0.116401624598 xtb: 6.4.1 (79825abcba525fcdf90b791dcacef51065a7a4e7)
C         1.15889784011174    0.00393333483560   -0.59011437953726
C         2.66757632233581    0.04220519793838   -0.48170528260867
C         3.50020437879614   -1.10261405623205   -0.49732859879381
C         2.96513488527585   -2.47172148326154   -0.88395647736692
O         2.58081651230634   -3.28877606076822    0.22140971438369
C         4.88686614811207   -1.06835766484107   -0.20004626169237
C         5.42440863526165    0.14739864083471    0.24442336803761
O         6.74075105959671    0.35547384233650    0.57963478098651
C         7.54404288438583   -0.73455950559410    1.01900168195577
C         8.28801940170094   -1.39695320130630   -0.11855515802226
O         9.10234473681408   -2.31667521243706   -0.07381255771401
C         4.63702933918492    1.29391450154746    0.37519485715949
C         5.28322387388448    2.52723560099161    0.75182580700789
C         5.73095888186895    3.52612266949124    1.22903613874762
C         3.28105831121937    1.22126205790256    0.00989747782875
O         2.58452586843754    2.40910373660220    0.06946045142265
H         0.82546838058541   -0.35436659300881   -1.56375659401371
H         0.83333358159328    1.03439470312961   -0.39066777152802
H         0.80230410103855   -0.69664165538213    0.17405341493174
H         3.61788913774641   -3.05661723201896   -1.52060182313491
H         2.06707490017130   -2.31165058988430   -1.49551898425870
H         2.00210593128070   -2.88243548784724    0.88892141395899
H         5.54567183638573   -1.91262538457707   -0.36290328799159
H         6.98325209709856   -1.52387063242402    1.52439699439569
H         8.23462448558172   -0.31798311700143    1.76043916887946
H         8.07805177592065   -0.81755522183630   -1.03353701232334
H         6.30713216841329    4.42574930010947    1.23896291570245
H         3.12973952335855    3.12634214101803    0.43405173476534
