28
 energy: -47.956437345516 gnorm: 0.111925249555 xtb: 6.4.1 (79825abcba525fcdf90b791dcacef51065a7a4e7)
C         1.14708784812693    0.05998935817968   -0.80262050174799
C         2.60392216511914    0.02907425009895   -0.39518207706449
C         3.44999744803583   -1.09978798993076   -0.51329799569671
C         2.97540136710111   -2.51176375411878   -0.81548775098364
O         2.79381662388619   -3.09464722220522    0.47462351121530
C         4.80043414950349   -1.07799973305313   -0.07944645320176
C         5.37816222543188    0.12530401035497    0.34817366564171
O         6.70479844505340    0.28909480306531    0.66696558296664
C         7.51965926991898   -0.84326656224983    0.95025573003777
C         8.33407018817756   -1.28830310885857   -0.24346926407724
O         9.12086272281121   -2.23161809683229   -0.19731114912414
C         4.58903355476643    1.27801393286646    0.35826133507446
C         5.27695870083470    2.44296389889673    0.85841110259494
C         5.83695791738299    3.46991585119356    1.09870737712410
C         3.22738773212719    1.23554418030418    0.00970002907484
O         2.51859039964097    2.41523834615012    0.08454035095442
H         1.09714327554462   -0.32282061083825   -1.82168638685861
H         0.80781585236054    1.10508386934274   -0.78548454530944
H         0.48432345771210   -0.67368723308450   -0.32893405744150
H         3.77429036859087   -3.01790932471492   -1.34378830908705
H         2.09537577004265   -2.50637191876263   -1.47250297691224
H         2.14830164789521   -2.60856642800651    1.01557299705979
H         5.34163649467710   -2.01342800279923   -0.15299448998580
H         6.95682837016821   -1.73986500625139    1.21905936413627
H         8.21049206849558   -0.56163237730644    1.75250295710571
H         8.21070888988006   -0.64326262591308   -1.12985799481266
H         6.35276748439342    4.17544677359578    1.71317372255709
H         3.11412135558120    3.14901626067255    0.31153928514475
