28
 energy: -47.949200808391 gnorm: 0.123862914157 xtb: 6.4.1 (79825abcba525fcdf90b791dcacef51065a7a4e7)
C         1.17658884962094    0.02941828326421   -0.25892177813503
C         2.68363156238979    0.16296108381278   -0.24112796070685
C         3.48174837643047   -0.97277479495084   -0.51904570106877
C         3.00554035732146   -2.35427243916923   -0.93728703371084
O         3.86439014202250   -3.47175427494799   -0.71206579780062
C         4.89251109796662   -0.92015296929414   -0.37990314537816
C         5.52731140222783    0.28254239272610   -0.04060825669705
O         6.89243689318332    0.39699644978337    0.06779848820411
C         7.47680220645654   -0.51044052614615    0.99600592699927
C         7.83300585647797   -1.86745245848307    0.43214458989897
O         7.79416831593242   -2.96986280293076    0.97454601678166
C         4.75155893605344    1.43133513529717    0.13273910190035
C         5.29992695403673    2.70203380002931    0.53908455972596
C         5.78070355230450    3.60103848968055    1.16086921981099
C         3.35022582076561    1.38472063886201    0.02563824661914
O         2.47661512857190    2.43831617417526    0.18816166241579
H         0.73682273073462   -0.15373791783213   -1.23902012593159
H         0.72277083567371    0.96754715990019    0.08976875103568
H         0.80195729229494   -0.71626988335454    0.45207553708788
H         2.91712412445724   -2.36333265998470   -2.01692073820110
H         1.97696157930470   -2.61320117201868   -0.65246299812041
H         3.85003635690816   -3.75024047403607    0.21950807108786
H         5.39322163816995   -1.88052260821540   -0.36217046168089
H         6.77931906384795   -0.74550124422572    1.80296720871188
H         8.42094123323912   -0.09417845907859    1.36410343189222
H         8.08938670826653   -1.71168908956003   -0.62945177799534
H         5.98084634622302    4.63890839938200    1.31634009987041
H         3.00446095181364    3.25066249232317    0.26618672687985
