28
 energy: -47.956427946825 gnorm: 0.112890669745 xtb: 6.4.1 (79825abcba525fcdf90b791dcacef51065a7a4e7)
C         1.21688969876435    0.05580428708756   -0.83661690544256
C         2.62336496739041   -0.00004979603428   -0.28160728395630
C         3.39855965061793   -1.18418178807968   -0.31369054897302
C         2.86856521062723   -2.48275382522004   -0.89939712576596
O         3.86039222043839   -3.50046888709556   -0.76654964452931
C         4.68843065697384   -1.16248667275580    0.27634612113553
C         5.25477440297703    0.01665455078841    0.77978362653923
O         6.51877286816896    0.10632495646795    1.31146629806295
C         7.54524131659682   -0.83364103516912    1.01260146600816
C         7.91563283192515   -0.99180426653968   -0.44482659292487
O         8.86801173602169   -1.66166710228772   -0.83887536358385
C         4.52997246323129    1.20921241370651    0.71627089799596
C         5.22798961152332    2.39023877112369    1.16174593286756
C         5.58383857439208    3.47479208597617    1.51258399696285
C         3.24328611280273    1.19929341008630    0.14906912569078
O         2.52690584011641    2.36788489567291    0.00461740041788
H         1.19282051665563    0.20458281429834   -1.91588463440724
H         0.71682951186213    0.94637091912871   -0.43108941178777
H         0.65506445902009   -0.88021078551660   -0.73589445274279
H         2.62920197984881   -2.31688112614572   -1.94280497707239
H         1.97421152708214   -2.77412758387832   -0.33249682478803
H         4.67892857280560   -3.18090859595271   -1.18304685782873
H         5.26407705554180   -2.07500198147458    0.37269119506979
H         7.47623913598506   -1.75162069374007    1.60037253423174
H         8.34937352431031   -0.20717803677965    1.41395404165298
H         7.25638579061248   -0.37741815674517   -1.08114668710413
H         5.80285288871005    4.35736379136582    2.07338894425078
H         3.18423612206969    3.04716263509398    0.23070216430192
