28
 energy: -47.951534765773 gnorm: 0.118720350847 xtb: 6.4.1 (79825abcba525fcdf90b791dcacef51065a7a4e7)
C         1.17199191246167    0.07693506326127    0.78842165073445
C         2.57604955726574    0.04617126393528    0.22539079056793
C         3.38471021218903   -1.10967656246594    0.10619157170092
C         2.72444695532949   -2.47093414275964    0.25201979204114
O         3.43786631234756   -3.45111546502296   -0.50123356136595
C         4.76737122187913   -1.05916613507808   -0.20698311414665
C         5.51247985307977    0.11283395567591   -0.39618536943689
O         6.85060370970068    0.16596041142496   -0.70444088988650
C         7.80219785276090   -0.75150674682334   -0.17603165437942
C         7.60521714794018   -1.29115624798490    1.22263880052679
O         8.48437083965173   -1.88096152718088    1.84732651970160
C         4.67950231898931    1.23192387452991   -0.32302705063291
C         5.34741588272033    2.48316918285403   -0.58527857721897
C         5.87530442214229    3.46159608938904   -1.02115265098845
C         3.30824029225101    1.23610881056695   -0.01157732143942
O         2.64746502628055    2.40639855416737    0.29415298033504
H         0.75728904938395   -0.87203779906754    1.12754588282889
H         0.43312076431627    0.48265405489523    0.08338038384272
H         1.15192227472580    0.80589517506687    1.60703706373557
H         1.67008191423115   -2.41375254647722    0.01004236108555
H         2.81440755014735   -2.78633763432771    1.30014710245988
H         3.63332767619457   -3.14849855123652   -1.40445464544966
H         5.19640538833249   -2.04981472522491   -0.29575468160406
H         8.80434214927487   -0.33293413316408   -0.29190468113121
H         7.84866066008353   -1.69345476497780   -0.73347538942542
H         6.62332227087393   -1.04565290709971    1.66149045437115
H         6.40121207508234    4.37440584436570   -1.19892151181214
H         3.28427031280307    3.13241856918473    0.18465581211550
