28
 energy: -47.950042888144 gnorm: 0.117125544415 xtb: 6.4.1 (79825abcba525fcdf90b791dcacef51065a7a4e7)
C         1.39873277471430   -0.07622206775922   -0.86483068175826
C         2.82099585674623   -0.05935070855912   -0.34887417545571
C         3.56826415869036   -1.23149362979944   -0.08092688649576
C         3.01785613994701   -2.60961070428798   -0.40968206080467
O         2.87023971785354   -2.83203448806629   -1.81176988405267
C         4.84204177545450   -1.08309204594242    0.52557843696124
C         5.39861442554526    0.19075976663529    0.70473486647588
O         6.62314308492950    0.38622790837146    1.29696888663421
C         7.56865596080558   -0.67765209985076    1.27130836973143
C         7.83497587455580   -1.36661644271275   -0.04804900008416
O         8.36240235300489   -2.47510398447422    0.01592685701076
C         4.66662537772114    1.35237109692352    0.44701966623853
C         5.36902559044167    2.55282914510277    0.82916310936582
C         5.70389168352438    3.55151305986053    1.39171698240537
C         3.40973723983703    1.21704412953609   -0.16885110587766
O         2.71515662939879    2.37087644587159   -0.46194120451616
H         0.68073689436560   -0.75268579711634   -0.40178431229676
H         1.54889507987136   -0.26261259372445   -1.93736577366366
H         1.05546462690706    0.95408691109520   -0.71467336575784
H         2.08525548177431   -2.76782228153536    0.11827016988684
H         3.73180475499798   -3.40242306624744   -0.14916515127365
H         1.91091003064411   -2.75141161543040   -1.94879897624369
H         5.44168007387342   -1.98008009102888    0.62139958735768
H         7.32845268537692   -1.51210451265398    1.93381447679387
H         8.49932413047678   -0.13158616371983    1.46061535931947
H         7.77747088707229   -0.76724544823656   -0.97240164010954
H         6.20280223015151    4.45513734495183    1.66731395289159
H         3.21716098631642    3.15094258766102   -0.17193413271853
