28
 energy: -47.947802621825 gnorm: 0.125121842388 xtb: 6.4.1 (79825abcba525fcdf90b791dcacef51065a7a4e7)
C         1.25290092378787   -0.30692444257523   -0.44027034987706
C         2.73573737610527   -0.09017234190891   -0.23160168241526
C         3.74758562709944   -0.92104756056281   -0.77005704508701
C         3.22919893854077   -2.05277531116603   -1.64224003000973
O         3.98897836129705   -3.26020174673072   -1.59785715684699
C         5.12676013550646   -0.63692301146291   -0.59820812175884
C         5.52755274844349    0.38684604491810    0.27117715552171
O         6.78009990192896    0.61373887674511    0.78892672500422
C         7.83283304823320   -0.15220463254099    0.21309932552584
C         7.56730320573968   -1.58965196756917    0.59980476331757
O         7.74399053442412   -2.55190366710672   -0.14441931944188
C         4.51983702780812    1.24394238980380    0.72002103995358
C         4.78815497811004    2.40922389473677    1.52663353094228
C         5.48232616607802    3.13121409465987    2.17688598212288
C         3.15169855079474    1.08970332070072    0.43403954087976
O         2.21599840207490    1.88867170302888    1.05515772789093
H         0.72762218328050    0.37485118774474    0.22815873576814
H         0.91526167795517   -1.31312151730929   -0.15533378358816
H         1.02028122670548   -0.10089723609546   -1.49163027667761
H         3.33324488276605   -1.72394060083483   -2.66915318398093
H         2.15057619273878   -2.22934044277075   -1.53481168869184
H         3.92810475587124   -3.56237500343980   -0.67559027846997
H         5.85497147874920   -1.35078405336762   -0.96351070357888
H         8.83240147926981    0.07845397850074    0.58804244279697
H         7.98266899601029   -0.02806777089113   -0.86500438431089
H         7.22101251515307   -1.62117386662889    1.64673806795943
H         6.03891700098935    3.89530931380648    2.67464839233197
H         2.75671284327944    2.59754320312385    1.44212640384842
