28
 energy: -47.951621381162 gnorm: 0.122774811392 xtb: 6.4.1 (79825abcba525fcdf90b791dcacef51065a7a4e7)
C         1.24243421551986   -0.08850089901172   -0.76213928513774
C         2.66857096524278    0.06528746628222   -0.28067157783894
C         3.47988317891550   -1.08087459698963   -0.46014224925505
C         3.05993893549299   -2.44451490183549   -0.98394334101361
O         4.03847974716001   -3.13711668303238   -1.75845858681822
C         4.86335400951063   -0.97785978043833   -0.16386944980630
C         5.36116307812130    0.18399004717887    0.44181998042031
O         6.61046349973315    0.26918593678929    1.00786721688367
C         7.52336736709553   -0.81987552329386    1.09180405197400
C         8.12442663137569   -1.01500396656966   -0.28186063955322
O         8.80534197812322   -1.94243207498943   -0.71458182534298
C         4.52610625329464    1.26619062564446    0.73006980028595
C         4.96427337268371    2.42957471589165    1.46153834073445
C         5.34808919364483    3.30754756161673    2.17415381398515
C         3.17012435304202    1.22561210563899    0.35987463179767
O         2.26267074585213    2.25168958959017    0.51273401108083
H         1.20021837578075   -0.74721724516695   -1.62922855751029
H         0.87513947332243    0.92939266120414   -0.95347391428392
H         0.65997119632594   -0.57036565603266    0.03187584048473
H         2.24816138519450   -2.27039795434153   -1.67979458304415
H         2.84573136556934   -3.01074325422342   -0.06762259986593
H         3.65503205656968   -3.98369276279144   -2.04458317147670
H         5.53562320041309   -1.78332097071899   -0.43335366173970
H         7.05690329820550   -1.73241347385694    1.46943951655662
H         8.34942421861673   -0.54381211189399    1.75632452041328
H         7.94488472793182   -0.07666320105495   -0.83345970559977
H         5.65700674184596    4.09651891995233    2.82491983282049
H         2.67443391965043    3.08540413888699    0.79555338645411
