28
 energy: -47.949183791525 gnorm: 0.119666554229 xtb: 6.4.1 (79825abcba525fcdf90b791dcacef51065a7a4e7)
C         1.09500878788894    0.19548524147717    0.22446849637560
C         2.58251445939695    0.03378464671465   -0.00027099174375
C         3.26723591363719   -1.18354544770556   -0.23133086369513
C         2.77555723097725   -2.61663188981755   -0.10987740351815
O         3.51870893231919   -3.39996019622271    0.82352257720395
C         4.66809403772185   -1.07170894662033   -0.42490325995769
C         5.38425497765957    0.13225389197098   -0.37847515708056
O         6.74886337668321    0.29373645577182   -0.39213746678475
C         7.63518640856040   -0.81896095083997   -0.33894263037541
C         8.23168214918193   -1.27376267715971    0.97393598102409
O         8.74684714894765   -2.38960918608158    0.99647086428065
C         4.66255105753631    1.30980056960386   -0.16849122411137
C         5.40745317039454    2.54493946209139   -0.16128097851495
C         5.61872786787595    3.68003951225382    0.14348553027061
C         3.26656779848102    1.27486164539884   -0.00299795168756
O         2.55253679863299    2.45367362285788    0.01233527009582
H         0.75647963770775   -0.40400865317141    1.06918045447775
H         0.55023655995983   -0.04098350549816   -0.70015435472642
H         0.95364128141075    1.24603835745197    0.50423663620883
H         2.95207263657394   -3.01378141095148   -1.10215912890032
H         1.70103728276529   -2.62474626997356    0.11702381346697
H         3.21145424563705   -3.11454308191541    1.70086065151754
H         5.13014717339573   -2.04575068107522   -0.53018828373611
H         8.50184318023929   -0.56924081488833   -0.95495292132895
H         7.23544441280464   -1.72733859753476   -0.80286586505419
H         8.24069309501526   -0.60690179684804    1.85268257894218
H         6.00250448693568    4.66526352954886   -0.00965306714975
H         3.27693943253569    3.09719179660660   -0.06343315286381
