28
 energy: -47.952167832083 gnorm: 0.122450558750 xtb: 6.4.1 (79825abcba525fcdf90b791dcacef51065a7a4e7)
C         1.40126767386327    0.08867127100984   -0.91231970530646
C         2.85997151819701   -0.00035865840044   -0.52042073041700
C         3.39671662664358   -1.21555813078128   -0.03121768685271
C         2.75470375239640   -2.59302445142547   -0.05654791451181
O         2.91291846700726   -3.21890576132460   -1.32947913860443
C         4.65599790306443   -1.15570202618276    0.61917377884046
C         5.35427616127730    0.04673960924356    0.79555447097888
O         6.55769265968168    0.16017886742212    1.44926664723973
C         7.53525910734666   -0.87124763484302    1.36549949474559
C         8.00010154297374   -1.13254587528941   -0.04940218725785
O         8.67431921550754   -2.12529353196852   -0.31567056704812
C         4.76850473759468    1.23078730203940    0.34116604959840
C         5.36835002779738    2.51181718863037    0.62338448741728
C         5.62988335152015    3.66017739866557    0.82046534639120
C         3.49198383648811    1.23854287298275   -0.24859002432466
O         2.86048365966023    2.42592164608576   -0.55027232974994
H         0.77234487858281   -0.35636577067056   -0.14165028358510
H         1.33571673273295   -0.41147251784890   -1.88862955944311
H         1.16637927988200    1.14312804891052   -1.09904190018766
H         1.69371085058472   -2.57916357476018    0.16165012271758
H         3.21684361055523   -3.21556051979975    0.72128157926790
H         3.00535291858832   -2.64326477094694   -2.10773602997030
H         5.20109322716541   -2.04300928140694    0.91732181474404
H         7.03360966841342   -1.75599468863989    1.76361163427336
H         8.39301355456325   -0.52872739124849    1.95465615716962
H         7.59502525299247   -0.43290214789317   -0.79999666476758
H         6.15765600185421    4.58790816434320    0.77383995552370
H         3.31961586582729    3.15626097065533   -0.10259191918861
