28
 energy: -47.948852341307 gnorm: 0.117877201220 xtb: 6.4.1 (79825abcba525fcdf90b791dcacef51065a7a4e7)
C         1.28549100234508    0.12037215727691   -0.86701429890543
C         2.72407110623562    0.08442611461994   -0.39954963814146
C         3.34761675904590   -1.14228592812090   -0.06714463070374
C         2.75573807601505   -2.48394104718303   -0.46699059652629
O         2.76447449304138   -2.62952295636097   -1.88679438529863
C         4.63854613487703   -1.12576056225728    0.52074091481269
C         5.36800620976060    0.04615475304157    0.76378630672296
O         6.60762410154089    0.13532679294075    1.35014386010153
C         7.30671361358042   -1.07093292549616    1.63772875979259
C         8.34323142854492   -1.41270611052450    0.59124706372376
O         9.21583055306167   -2.26269286702990    0.75589672660790
C         4.77190957853723    1.23923245686786    0.34809369068864
C         5.46965297152213    2.48735296844602    0.15875656914888
C         5.88938344292435    3.50671244191059   -0.30026883225092
C         3.41347193558630    1.26117818919338   -0.01459564791437
O         2.64385754460381    2.40390111632490   -0.05397903623786
H         0.62329540273683    0.33164528251729   -0.02773254427766
H         0.97448653935251   -0.82869396389589   -1.32545882746239
H         1.34981992143898    0.96561072930454   -1.56224834842202
H         1.74056307679586   -2.68320031014014   -0.14570580938680
H         3.34891036862444   -3.28826467274342   -0.01163001001222
H         2.15063877582205   -1.99278498061800   -2.29097371483854
H         5.10822292067307   -2.08716461185063    0.68938641050004
H         6.64534481300320   -1.93776358044950    1.70190593184375
H         7.80755510873321   -1.00761361069424    2.61000281716037
H         8.23914019347811   -0.71592431102127   -0.25765832254273
H         6.51142739382389    4.31099721615233   -0.62827736573879
H         3.19479233194842    3.12990037022270    0.28367701338372
