28
 energy: -47.951466834122 gnorm: 0.120967771425 xtb: 6.4.1 (79825abcba525fcdf90b791dcacef51065a7a4e7)
C         1.31796390024252    0.05797325207071   -1.01097691829726
C         2.65451238138991    0.02284960546528   -0.30264597818338
C         3.46459570370443   -1.12896464235543   -0.44829593053026
C         2.85712739214531   -2.35597000724836   -1.10835342001390
O         3.84972336904233   -3.38096301658124   -1.07291594090360
C         4.82302203049284   -1.06958057296362   -0.04390400727447
C         5.29235354955916    0.09843517605502    0.57256657322395
O         6.61712172434612    0.20050285773487    0.92326733732419
C         7.53014179913074   -0.88482109824891    1.04557861886300
C         8.27982329045707   -0.96066838585803   -0.26534735438882
O         9.18549598208604   -1.65171568419301   -0.72711227945632
C         4.42556407000488    1.16253764421285    0.83319706931280
C         4.94841534638534    2.36696802453545    1.43025114768294
C         5.32850136672816    3.39325005739983    1.90800814077120
C         3.10926735082573    1.20116231243067    0.33999381744343
O         2.34711166079088    2.31122608393587    0.63418826732266
H         0.65347861220440   -0.80240334591357   -0.93518337475198
H         1.46826900646699    0.11484218674684   -2.09808132804206
H         0.84281451985984    1.00306449445274   -0.72296220906564
H         2.66821181119306   -2.09544663326902   -2.14273582479032
H         1.94505784774359   -2.76624828817271   -0.65454283723539
H         3.51563078984493   -4.23493433897579   -1.39649839159344
H         5.47653530266071   -1.91281385604103   -0.23155655371541
H         7.10894135411324   -1.87595186629439    1.22771260664950
H         8.26131687549891   -0.67853397110242    1.83488022650739
H         7.90959995454341   -0.18626050025872   -0.95831728951587
H         5.70991222181766    4.25487928020801    2.41151904108728
H         2.91495313005794    2.86721042228995    1.19369980838719
