28
 energy: -47.951165390230 gnorm: 0.126020762195 xtb: 6.4.1 (79825abcba525fcdf90b791dcacef51065a7a4e7)
C         1.32023108069370   -0.31301460897537   -0.26642802653004
C         2.80289102861683   -0.07466497419533   -0.08139565538913
C         3.69792332808962   -0.95823338646366   -0.73127930391917
C         3.26907668525265   -2.28839159640920   -1.32877852995418
O         4.31180694255040   -3.02195887288832   -1.97042163529046
C         5.07638922436032   -0.62816859740103   -0.67409388163367
C         5.52262024237086    0.52214633307188   -0.00909612009927
O         6.87355515318018    0.77329529101418   -0.02694074540057
C         7.71028374980581   -0.37788694661762    0.00709519911733
C         7.08189832101246   -1.56998805526346    0.69290037066870
O         7.29002154064795   -2.70980888166459    0.28240135700354
C         4.63529954605503    1.41983372031503    0.58955678095281
C         5.02811742409491    2.50181199278064    1.45876120434235
C         5.40789423050686    3.20074167752718    2.34940063385476
C         3.27001173532618    1.08313362325614    0.58905880063379
O         2.30203467633634    1.90160813619879    1.13016225149238
H         0.79314867419092    0.41087867183311    0.35461614780352
H         1.07381712756060   -1.30392803248975    0.13976456003457
H         1.06654689315971   -0.18606114205344   -1.32541054866001
H         2.57044810873034   -2.14455744440471   -2.14409337693502
H         2.67673765019911   -2.82544890626263   -0.57588608005215
H         4.99620566486719   -3.06901670984193   -1.28123775740516
H         5.85783144477128   -1.28106863745674   -1.04342426621757
H         8.63060196778047   -0.12032433310056    0.53586609859721
H         8.04482978986226   -0.60623187787523   -1.01079768422076
H         6.57515900339558   -1.24671753655709    1.61793639835895
H         5.78721790298189    3.86595796728770    3.09438594200678
H         2.91396388592589    2.49340830375282    1.59913013423840
