28
 energy: -47.956958878442 gnorm: 0.115266823635 xtb: 6.4.1 (79825abcba525fcdf90b791dcacef51065a7a4e7)
C         1.46560616800919   -0.03678139579373   -1.09429885586013
C         2.81831674471601   -0.03319616418210   -0.41644247090787
C         3.53194035748430   -1.20915853377337   -0.08181052380655
C         2.84303004795561   -2.55653919795028   -0.22394972340560
O         2.54294136472927   -2.80428209794943   -1.59715162145220
C         4.83787574017225   -1.09725090023633    0.46076721544190
C         5.43408590277774    0.15409027103846    0.66872700269571
O         6.72453816557377    0.33034657913200    1.10700318557748
C         7.56242041403424   -0.78724753461100    1.38164924545814
C         7.99455236809692   -1.52793776963429    0.13628103549180
O         8.78705679577856   -2.46754724051448    0.14560859879891
C         4.68825124899869    1.31310100674850    0.44071225936288
C         5.27156762391251    2.61599900440687    0.64734718164794
C         5.68252097947761    3.73619480210804    0.69478578036899
C         3.34726416978773    1.20259713619628    0.03215317016620
O         2.55532981412349    2.32307674570237   -0.09837829122200
H         0.68956408881282    0.47224019653014   -0.52316934791806
H         1.28287670598933   -1.07084041539074   -1.41826421577475
H         1.65026028159947    0.64164584160315   -1.93546244160418
H         1.93093290808276   -2.53602856781534    0.36014493612189
H         3.49630968264656   -3.39729253242708    0.04531348004090
H         3.23560914944371   -2.48009193992089   -2.19773679364709
H         5.30801132046139   -1.98791401950516    0.85954920484455
H         7.21238645407877   -1.53561747588873    2.09603110339375
H         8.38309040443562   -0.20141812294280    1.80998678952066
H         7.48028809871922   -1.21158685248781   -0.78699279906660
H         6.06077619253297    4.72173653538648    0.53036939185941
H         2.96044362834824    3.05063041929014    0.40278446913817
