28
 energy: -47.956731982353 gnorm: 0.109689382592 xtb: 6.4.1 (79825abcba525fcdf90b791dcacef51065a7a4e7)
C         1.57864984660318    0.08734580002221   -1.09397323183562
C         2.88641931393871    0.02675143356139   -0.33542502583503
C         3.59675375330150   -1.13211049251087    0.06028790418370
C         3.03262148366356   -2.51173821938177   -0.23739942724391
O         3.37630577388712   -2.95977706453484   -1.54822188531545
C         4.93568295774842   -1.02080407387949    0.51554675440335
C         5.56369291553890    0.22112726568904    0.68221592250011
O         6.87891593585593    0.37882629970155    1.04791904513567
C         7.54753548543576   -0.84932101031139    1.31455703121187
C         7.55147023496106   -1.82575506447315    0.16006013296789
O         7.78498914887883   -3.01828879222347    0.34539349615554
C         4.77427064050945    1.36933251042030    0.58220023555583
C         5.14726995114266    2.75411559903963    0.73629927807601
C         5.18813754858027    3.94719706038066    0.70700439931493
C         3.49718470748904    1.25963934826990    0.00392958601244
O         2.76592308489722    2.36846287981684   -0.36409198046263
H         1.79624671758920    0.53615614230041   -2.06286646057432
H         0.86339760071568    0.74786367717774   -0.58431450032448
H         1.08295009367192   -0.85042873195693   -1.37106077545084
H         1.98013764434805   -2.55891471993628    0.01471283809246
H         3.54266311149754   -3.24940154474936    0.39651972008008
H         3.20807335549814   -2.21782331680718   -2.15385622873783
H         5.41028818117528   -1.95578254163323    0.78739317874235
H         7.12868750175513   -1.44307439482091    2.12999928528406
H         8.58504296634277   -0.53621778887210    1.47490971639453
H         7.43994356405056   -1.41760500580522   -0.85874090126912
H         5.21026924337925    5.00032153560313    0.52856309377763
H         3.19151275773407    3.20255169934162   -0.10373658192626
