28
 energy: -47.948994569234 gnorm: 0.124259605966 xtb: 6.4.1 (79825abcba525fcdf90b791dcacef51065a7a4e7)
C         1.22174121448135   -0.04162130522999   -0.68950005144186
C         2.65927020394702   -0.12127397470592   -0.22421102789305
C         3.60666435082842   -1.02329425330076   -0.76543964547775
C         3.36804276158156   -2.12774302923058   -1.78204588710481
O         2.27592864583062   -3.01265121348101   -1.53438186137713
C         4.98121004686129   -0.98075550247855   -0.41730787244229
C         5.41608460313835    0.17140182776602    0.25200982659024
O         6.72539409440454    0.35952402207111    0.62448539602383
C         7.69460172759882   -0.68008701672377    0.70410432957879
C         8.65226531884695   -0.85781430261871   -0.45244030149884
O         9.79423909037418   -1.26574573381603   -0.25118404399592
C         4.47690896467278    1.00116451603533    0.86926905308081
C         4.94321517548174    2.05657715223093    1.73481043713510
C         4.99476526997614    2.86349923419780    2.61355446562692
C         3.09231802401756    0.91575016032257    0.63907283300252
O         2.20528424218719    1.76948186359921    1.25873909870623
H         0.50395576401150   -0.09774063399024    0.12852676324567
H         0.93170624561678   -0.93873218872961   -1.25402944856894
H         1.00914250144743    0.80008464184741   -1.35901458316024
H         4.30277971275262   -2.65477410261387   -1.93041544433614
H         3.08575045154174   -1.57583466435589   -2.68860605454112
H         2.08026778648126   -3.06474976254943   -0.58328090141900
H         5.73535230508648   -1.63405955851456   -0.83896957841751
H         7.17652493400008   -1.61941719925574    0.90947722641847
H         8.26744007224283   -0.33835393403096    1.57315157475312
H         8.28346755961883   -0.57229448339716   -1.45216369315084
H         5.15035070703622    3.73126205803744    3.21703033726316
H         2.71197561732264    2.34988971294602    1.85119689539522
