28
 energy: -47.952676171328 gnorm: 0.110790475355 xtb: 6.4.1 (79825abcba525fcdf90b791dcacef51065a7a4e7)
C         1.17889824471507   -0.09477718720482   -0.39121281900711
C         2.68161069344094   -0.01305511330134   -0.23467267121859
C         3.48508337798240   -1.17348142262388   -0.12527842192392
C         2.98977535165798   -2.51133269390106   -0.64973961601231
O         3.09172086867582   -2.60057645302396   -2.07056890695297
C         4.85023901723489   -1.08246344167088    0.24948408989206
C         5.47075082386482    0.14675612288607    0.51131021994961
O         6.80587848339977    0.43680916966230    0.65869648592846
C         7.57741882340226   -0.60650218956085    1.24411995696576
C         8.14453514126216   -1.68603530379441    0.35009011113275
O         8.63012567238656   -2.74931810595407    0.73041595480972
C         4.70481869835105    1.27175374706117    0.19620026767072
C         5.23731943522041    2.56593428715304    0.54554094177412
C         5.52118862857810    3.56718737246343    1.13110244071976
C         3.32604127584459    1.23931696596380   -0.07820575218125
O         2.61993358020531    2.41581393656475   -0.20835888170146
H         0.80295623178557   -1.11752570552466   -0.37756460197549
H         0.79195905547968    0.45322821847432   -1.26160916391839
H         0.81693299621800    0.46691186308888    0.47792664011052
H         1.99769374342119   -2.86226111642364   -0.39257864938529
H         3.70129018713396   -3.30529571909109   -0.38608742248515
H         2.46828259196399   -1.98029987950271   -2.48550523364721
H         5.38953744913628   -2.01043571860126    0.39563463352386
H         6.96622055632905   -1.16134752022300    1.95931651871446
H         8.32618926270984   -0.14847259483230    1.89965035381936
H         8.00603161629294   -1.45499357987605   -0.71968402876172
H         5.95808426710267    4.43296599333646    1.57937897919144
H         3.24436923602280    3.12058147081175    0.03246989255719
