28
 energy: -47.958549069164 gnorm: 0.110153565885 xtb: 6.4.1 (79825abcba525fcdf90b791dcacef51065a7a4e7)
C         1.51370900942232    0.19385091174045   -1.12969469968151
C         2.82968345461992   -0.02285304015765   -0.41514680072456
C         3.31773301739850   -1.31666986234276   -0.11188066547677
C         2.66070494575152   -2.60136598360244   -0.58948468962883
O         2.75592920575373   -3.62171186234553    0.40396376842737
C         4.53744176109027   -1.35036631936890    0.61169122367345
C         5.21541168862631   -0.19708967301399    1.02987577392352
O         6.44280706055286   -0.26157528977021    1.64449887291055
C         7.47948616422993   -0.96466944627736    0.96814927996249
C         7.78457028837164   -0.24260711681279   -0.32485176482090
O         8.64942970993127   -0.62920762346121   -1.10816170322122
C         4.72648576662648    1.05649439865428    0.65431704000969
C         5.53529339459155    2.24946607231172    0.71042406922557
C         6.28898230474695    3.16904442578906    0.59951692347447
C         3.51562060162833    1.16302689072843   -0.05267261600483
O         3.00397416916879    2.35777627691188   -0.51143712657328
H         0.71284262384265    0.00940987636330   -0.41406368629866
H         1.28548641469986   -0.49168198059845   -1.95769274421950
H         1.42414004594377    1.25725057730167   -1.38084283072730
H         3.21478018326549   -3.03823986642613   -1.41146418479446
H         1.59368103406205   -2.48317310904180   -0.82107384812447
H         2.41933115916454   -3.22932148530234    1.22756683749212
H         4.95551218770832   -2.32659429732969    0.82507207385637
H         7.29787241752540   -2.02210554425803    0.76377675475424
H         8.37527136306010   -0.92400288780480    1.59750092349473
H         7.16819634990068    0.63642805005876   -0.57854559499843
H         6.82996512817539    4.07041786608422    0.40908117491388
H         3.66153221159158    3.06693451819405   -0.41485725162935
