28
 energy: -47.949054940386 gnorm: 0.118177620875 xtb: 6.4.1 (79825abcba525fcdf90b791dcacef51065a7a4e7)
C         1.36161971574926    0.03033427325962   -0.94596047240830
C         2.72994323185787    0.00634759926380   -0.30063619062479
C         3.34214011391740   -1.22561493706578    0.03344161666552
C         2.58668552396740   -2.54441759226520    0.01660296247581
O         2.66691686325389   -3.13421542894663   -1.28063050079816
C         4.65705929997219   -1.11706075914418    0.55457948120667
C         5.32701306757336    0.09377959135028    0.77728145156360
O         6.55888023086303    0.20421468968039    1.37621946084893
C         7.47831955245112   -0.87580438835663    1.25504250403471
C         8.08387302318916   -1.12993034270821   -0.10695126383493
O         8.81415627260605   -2.09342180119628   -0.32918270810844
C         4.67760720764291    1.29676354437610    0.48976171426382
C         5.37917718412382    2.53040543137764    0.74749502210476
C         6.01720303812406    3.53724576751278    0.67561129675450
C         3.41098512174300    1.23558031566561   -0.11794141827938
O         2.93369640158430    2.37513961041292   -0.72890225168089
H         1.44769769390684   -0.59652333779965   -1.83318836174081
H         1.01924981322250    1.04245760789366   -1.20288627108517
H         0.56296601019711   -0.52585630520215   -0.44126142983718
H         1.58768660712881   -2.41445963114712    0.41487490482587
H         3.06563698890430   -3.26728107678387    0.69055919441993
H         3.52528924136961   -2.91844995228762   -1.68341156718392
H         5.11116308364640   -2.00813967302295    0.97063651760525
H         7.07818577147035   -1.79878357559493    1.68039548824946
H         8.31995080384241   -0.56077659025118    1.88160671196194
H         7.98033234982871   -0.21629371516119   -0.71648195045273
H         6.24590803947981    4.57378847020036    0.79675387284485
H         3.56996202698178    3.08383960534872   -0.53518587159091
