28
 energy: -47.948333777180 gnorm: 0.119030493702 xtb: 6.4.1 (79825abcba525fcdf90b791dcacef51065a7a4e7)
C         1.25028403627825   -0.11066837262966    0.77895346994227
C         2.70619044996208   -0.06948171889018    0.36911421396251
C         3.41500972871631   -1.27144562712265    0.13040371295545
C         2.78092445375631   -2.64970668872326    0.03784049659019
O         2.88492395462155   -3.07010759045159   -1.32214494705406
C         4.75331723823877   -1.23537425964227   -0.33865176087784
C         5.44054218819111   -0.01387773115651   -0.35403631062599
O         6.75766252448474    0.13513479841126   -0.71653962944298
C         7.60842864463689   -0.85455144162526   -0.14802235233487
C         7.82979947153390   -0.58737865937564    1.32368267839016
O         8.47500141811271   -1.34399147251000    2.04636361126014
C         4.75371158939192    1.18952751645228   -0.17614446245524
C         5.42349008576720    2.43343444912080   -0.46699066164737
C         6.14256372724376    3.28450466553991   -0.89662342442116
C         3.43466114895096    1.14457651651555    0.30910118954592
O         2.74879338508633    2.27988012306977    0.68372657994525
H         1.15102345552439   -0.96736503135138    1.44510013745615
H         0.61647715006734   -0.36789749794668   -0.08113005709469
H         0.84511766684682    0.85207769606881    1.11193552303060
H         1.75713404796992   -2.73656907561412    0.38108469468338
H         3.39033645346638   -3.45479350570713    0.46980734756406
H         2.39827865593828   -2.53035643308020   -1.96823744011135
H         5.16936063759119   -2.21212866551067   -0.55357978920901
H         8.59338457770331   -0.69293541415448   -0.59149146940501
H         7.17608356048822   -1.84259833267947   -0.34040076486896
H         7.25495182848173    0.32633954416743    1.55094783038254
H         6.77596752961305    4.14157837139919   -0.97163383387173
H         3.35177291277866    3.01723268707539    0.49048436913921
