28
 energy: -47.944696908187 gnorm: 0.121417867272 xtb: 6.4.1 (79825abcba525fcdf90b791dcacef51065a7a4e7)
C         1.38674185676193    0.12568076265166   -1.12099926346964
C         2.69623776157061    0.06734945297026   -0.36525725922863
C         3.45903503038412   -1.12521145502905   -0.37322677478538
C         2.85302320838894   -2.48380546191721   -0.68500814697882
O         3.80325540798037   -3.53571959241324   -0.51872933656390
C         4.74452814647172   -1.06455337316840    0.22360586764788
C         5.35099699761551    0.13608567695772    0.61759822414202
O         6.67518565064034    0.25048102216829    0.96667911499388
C         7.50242223955607   -0.90696414670514    0.91673877941380
C         8.07120205261626   -1.03563927809258   -0.47833622510086
O         8.94974447057511   -1.85156567930490   -0.74934094543720
C         4.53715286497256    1.26113016210816    0.77089071048002
C         5.08102131017751    2.51628015295832    1.22838913282188
C         5.48110148400295    3.60462269118873    1.51372769027318
C         3.23898249154273    1.23265452572235    0.23114928245771
O         2.35031740990179    2.28544792716453    0.27081628735450
H         1.41715276275574    0.90571222109884   -1.88136714109942
H         0.55089690915641    0.21501577959643   -0.41318280099326
H         1.39815500185697   -0.86386253953795   -1.59279437755125
H         2.34431448392158   -2.63350362144936   -1.62963206165322
H         1.98290636004094   -2.66694440471772   -0.04041531006523
H         4.20006959322311   -3.70210340841987   -1.39076454021837
H         5.29879080637450   -1.99142444334561    0.13971153949930
H         6.93962182157567   -1.79271409989271    1.21943581413628
H         8.31662364255332   -0.74112179924231    1.63070010467328
H         7.60393281508795   -0.28748972285581   -1.14084050393849
H         5.76361120289147    4.40339080881711    2.16454258465291
H         2.42794437873737    2.88951164412904    1.02824399868339
