28
 energy: -47.946629831363 gnorm: 0.121913933178 xtb: 6.4.1 (79825abcba525fcdf90b791dcacef51065a7a4e7)
C         1.26350954417702    0.00078922716129   -0.81920243970273
C         2.69470180084918   -0.00915896466257   -0.32836867026225
C         3.57908963616616   -1.07993305990286   -0.60300602535195
C         2.98022888709251   -2.33803845119335   -1.21027223012977
O         3.69066132397012   -3.53697839616131   -0.90214568320606
C         4.91389909473319   -1.03108725214804   -0.12522057181783
C         5.30787854815108    0.12495650593047    0.56246510196129
O         6.56690826261900    0.28622526689001    1.08901606496455
C         7.54291887890100   -0.74721497528192    1.01221588086354
C         8.11604483720417   -0.93732682507378   -0.37403306807988
O         9.09227919613148   -1.63846103597322   -0.63170247583928
C         4.48207619714264    1.25013584928564    0.62236397544992
C         4.94983843927010    2.34863242147977    1.43168650730194
C         5.37841437719124    3.17354120294644    2.18123295952531
C         3.15019435055541    1.23617690497976    0.17150491863045
O         2.50935123619744    2.44236977899137    0.35614481279430
H         0.70840753523002   -0.85963064865263   -0.44627804857709
H         1.24764482153762   -0.13276432286316   -1.90985977536022
H         0.78616022970579    0.90490809535435   -0.42344552673866
H         2.99725081388067   -2.18990465273191   -2.28324710465360
H         1.93494929344853   -2.56319065823126   -0.95959280299562
H         3.17976999415271   -4.31168302894887   -1.19268526449189
H         5.43534270062096   -1.97998191105689   -0.09311418768091
H         7.06238361697569   -1.67176256947213    1.33966113177056
H         8.38321285937529   -0.49858726867139    1.66967969795680
H         7.59635262235036   -0.48803120348167   -1.23718639222637
H         5.75971881811811    4.06998342379543    2.61986781589276
H         2.96111987448060    2.84649720954708    1.11588278213433
