28
 energy: -47.947284673140 gnorm: 0.121312293398 xtb: 6.4.1 (79825abcba525fcdf90b791dcacef51065a7a4e7)
C         1.05039787084872    0.05528560689897   -0.43836181006159
C         2.55983847056122    0.15820033479668   -0.42031521838171
C         3.39003193007624   -0.91164311138857   -0.83303611279249
C         2.75399682589376   -2.08476447721582   -1.56069073347603
O         3.58640660339301   -2.83784121864633   -2.44221361966089
C         4.78599599479092   -0.96790368814862   -0.58706813724627
C         5.38504854707281    0.10328096655759    0.08988685924231
O         6.75433778947932    0.21614754761035    0.11685850810631
C         7.31617680452069   -0.79343449627492    0.94846824651722
C         8.70684048673000   -1.03604784861350    0.40671616238051
O         9.57476311439952   -1.80548599249218    0.81376835380330
C         4.57185704461057    1.09542627120096    0.64299918483818
C         5.10847257335588    2.04015467322818    1.59169894719299
C         5.32371680289932    2.59752806010325    2.62561217572231
C         3.18798289107438    1.13142197242902    0.39606873612135
O         2.39040517929721    2.07452007085324    1.00771309973319
H         0.68424678783331    0.89340063256531    0.15411586861555
H         0.65333132865572   -0.92172803311964   -0.12948615370504
H         0.56585631735738    0.17649071741533   -1.41429502059840
H         1.85064797378341   -1.81858241592686   -2.09605641422559
H         2.45601900516510   -2.81198973607409   -0.79355595252780
H         3.70642760531434   -2.28045628107518   -3.22993657795217
H         5.34607573619673   -1.63828177581815   -1.22756735178652
H         6.74879637866731   -1.71901439683074    0.82886854971633
H         7.45755658861640   -0.49537971895107    1.99314211440254
H         8.99007295091033   -0.46433025467530   -0.49322749217239
H         5.64495858919822    3.20421687761081    3.44422971246296
H         2.81744103508224    2.43830768273975    1.80138470345351
