28
 energy: -47.961048874985 gnorm: 0.105825185950 xtb: 6.4.1 (79825abcba525fcdf90b791dcacef51065a7a4e7)
C         0.98954254102593    0.16088367891348   -0.61752612817784
C         2.44158343839682    0.01025791434682   -0.21976093381011
C         3.16859178298195   -1.20300645922067   -0.15998525052268
C         2.32958229326391   -2.46912061060448   -0.10294430609217
O         3.05188753476192   -3.66773666169147    0.17760500397199
C         4.56731150341408   -1.26170946795310    0.06918337466077
C         5.27972476560503   -0.06054084974028    0.18847242443809
O         6.62620191502455    0.08109574434108    0.42375465139073
C         7.50127455072558   -1.04131768705602    0.39326363434756
C         8.93073913621567   -0.55819294617928    0.29567512913399
O         9.80204982581925   -1.11662886856227   -0.36763719037697
C         4.58630139832103    1.15180092637856    0.21941477642163
C         5.38398203070181    2.33897391202646    0.40602969020825
C         5.91635947481409    3.30023671127126    0.87349072699292
C         3.19738920575578    1.18817562643221    0.00267113725870
O         2.54489943572887    2.40062078803289    0.06517619367934
H         0.99426792655970    1.06822766055285   -1.22104728130086
H         0.36561110895349    0.33802608677711    0.26957690963590
H         0.61764509854362   -0.71612723349193   -1.16016871752168
H         1.88728205333651   -2.62732565907266   -1.07908472283748
H         1.56751834615755   -2.38239618355960    0.68310947251613
H         3.58859830520093   -3.86580206159566   -0.60871688593846
H         5.02341093087838   -2.24401467663448    0.08880790608801
H         7.30301671309004   -1.65661136235922   -0.48709442224982
H         7.42854884222070   -1.61320444149998    1.32483483072811
H         9.16646239960456    0.27288497511555    0.98176859814317
H         6.51903143418595    4.17487800361208    0.98834453679327
H         3.12700558334500    3.10682037448562    0.39236152103872
