28
 energy: -47.954627576179 gnorm: 0.117358104323 xtb: 6.4.1 (79825abcba525fcdf90b791dcacef51065a7a4e7)
C         1.01520333345807    0.11039149918318   -0.03935158658415
C         2.52229912230387    0.07163676045819    0.08905552352088
C         3.25336555538757   -1.14057731449049    0.10332443270006
C         2.60886785171825   -2.51709015145963    0.11173495190216
O         3.51134596678042   -3.61137319728831   -0.04698201688443
C         4.67018142277098   -1.06983214036449    0.10633529516943
C         5.38110445643285    0.13719351386523    0.15372803439531
O         6.74161215364330    0.26101400505600    0.00504500735698
C         7.58233430973814   -0.79843453606550   -0.43908196901402
C         8.20838656342394   -1.37970702418311    0.80850887010512
O         9.24150212095174   -2.04496232383643    0.84203290794170
C         4.69460559724599    1.35351081669061    0.12444522010484
C         5.27877664368892    2.66786798559321    0.01623893707491
C         5.74880311634803    3.76427082070405    0.07053116985919
C         3.29150823102400    1.26165927852086    0.10834968121639
O         2.53680166334244    2.38578676606899   -0.14938747705228
H         0.63628983869420   -0.49431898320572    0.78422779973849
H         0.62980657462437   -0.34392740315534   -0.96276121106305
H         0.72723283490133    1.16820043335947   -0.03386685626283
H         1.79052722959013   -2.65988929407095   -0.58356029117980
H         2.13659617049696   -2.70488858327739    1.08530278952319
H         3.93534714942450   -3.67801192151491   -0.91954877310078
H         5.17276790237763   -2.01902600844542   -0.03428178053659
H         8.42323053202252   -0.35788028148716   -0.97920073143788
H         7.03749557464831   -1.52532481582580   -1.05141329608201
H         7.70294897531760   -1.18965483078390    1.77048247905714
H         6.29664376911002    4.66240181230967    0.25663223255732
H         3.18555725812153    3.10933940614227   -0.16365008751710
