28
 energy: -47.946837257151 gnorm: 0.122491030936 xtb: 6.4.1 (79825abcba525fcdf90b791dcacef51065a7a4e7)
C         1.24125687855423   -0.10002376239153   -0.61595745548992
C         2.69391262216483   -0.03896189969302   -0.19716063436624
C         3.56716504805073   -1.13761824496544   -0.38292698160581
C         3.23901816642673   -2.41848862196341   -1.13254443672363
O         4.28085950899777   -2.89157503951907   -1.98569686802563
C         4.84718027939102   -1.06209319830288    0.22389929926827
C         5.36230389988382    0.15876159906499    0.68076886106972
O         6.60720381039865    0.42233741674780    1.19958613849890
C         7.52299832401581   -0.66015933464180    1.07303603667670
C         7.82043937597898   -1.23356251029684   -0.29409221278320
O         8.18934944822355   -2.39196047506505   -0.47584958989004
C         4.55929862845483    1.29881336999323    0.76461666709743
C         5.03025097509299    2.49928751702011    1.41080927870469
C         5.37296730591018    3.55299561425475    1.85602436295800
C         3.24719109156508    1.17778915764513    0.27359228969160
O         2.31861859692917    2.19436578226591    0.33682310070859
H         0.60976509800279   -0.90045156192580   -0.23116313073805
H         1.20986226945901   -0.20713880886814   -1.70919229334506
H         0.82111918282202    0.79815718073714   -0.14833352020481
H         2.29149159266715   -2.22950563505964   -1.62242939618559
H         3.08809713691685   -3.21030197225878   -0.38662380446653
H         3.90439393519662   -3.62227430862650   -2.50525698779996
H         5.57407156215066   -1.83734321609321    0.01425242832595
H         7.20594118675472   -1.43029365083053    1.77964108435235
H         8.50613024869300   -0.29295551391491    1.38733105242444
H         7.69970178317475   -0.63731024743640   -1.21435624469792
H         5.70272902191970    4.43785173058416    2.35571339454732
H         2.85566218085385    3.00141465556644    0.40662260657848
