28
 energy: -47.955427665364 gnorm: 0.109811944147 xtb: 6.4.1 (79825abcba525fcdf90b791dcacef51065a7a4e7)
C         1.20997533700824    0.05734692066517   -0.70632219151439
C         2.66550735418879    0.04324235123573   -0.29333835662904
C         3.35823875473332   -1.17979035028036   -0.12469993197443
C         2.78770857773612   -2.53221988179579   -0.51924435702102
O         2.62725041828368   -2.75259866591515   -1.92024385044909
C         4.69465800592558   -1.12671378081350    0.34810829614886
C         5.36076052351050    0.07038643071740    0.64446467347917
O         6.56825183368606    0.25224982034156    1.27478983357119
C         7.27331753769343   -0.92730782386464    1.64630006337909
C         8.24783668704387   -1.35535631916597    0.57234059146218
O         9.16114325985988   -2.14379924275424    0.80738333502138
C         4.70196907235436    1.24979249106107    0.28871033722950
C         5.50491028811394    2.44473197451567    0.19980449413476
C         6.32520853392221    3.29002060486146    0.00341292229811
C         3.32845211834632    1.26379726974914   -0.01234289822833
O         2.67218916190323    2.46929900276825   -0.13787199907852
H         0.47317028238012    0.16199938066079    0.08973018020488
H         0.93325279604737   -0.86685147525948   -1.23253852054850
H         1.18139163240253    0.88518438490156   -1.42450388097971
H         1.82828933253264   -2.74947626761757   -0.06556735595031
H         3.52084035075136   -3.24732742723698   -0.12265624338364
H         2.18120076082820   -2.01768261665851   -2.37469799619100
H         5.20628319295798   -2.06397787157767    0.53007266084391
H         6.65687858814460   -1.79508091669864    1.89103597375659
H         7.81498579925561   -0.68133204934049    2.56622386244369
H         8.03513736617810   -0.83574706655747   -0.37726218887583
H         6.86097445760480    4.19456279203174   -0.18674644036159
H         3.37905017397982    3.13613040107230   -0.12057859978846
