28
 energy: -47.951474054171 gnorm: 0.112641169754 xtb: 6.4.1 (79825abcba525fcdf90b791dcacef51065a7a4e7)
C         1.18321325620475   -0.01599926310677    0.53044534384955
C         2.64838198711113    0.02579563866542    0.15512973471007
C         3.47848625964673   -1.12083672789520    0.13822401208499
C         2.93706426181869   -2.54078697882889    0.16719161959269
O         3.97928848432466   -3.44677341000948   -0.19346121929614
C         4.88018092019182   -0.91310458496226    0.07128688255605
C         5.47928182565424    0.35356999602266    0.03690403767045
O         6.83578016095921    0.56774825245609   -0.01268720840627
C         7.68726915065881   -0.57142252664436    0.04855136073737
C         7.56499536724685   -1.70968213065649    1.03633484888375
O         7.94385517987165   -2.86984795732029    0.88971723623256
C         4.64289219194824    1.45055546902762   -0.18364347285468
C         5.16970537159773    2.70769640373413   -0.65541008172428
C         5.73977765677693    3.75069420446112   -0.77006127175285
C         3.25371054679216    1.29329402053842   -0.03257665926200
O         2.42652408044539    2.38847648803142   -0.15911107690331
H         1.14484029743081   -0.09858615659254    1.61637357829364
H         0.78445091216728   -1.00644437211444    0.27039007623623
H         0.54842667134285    0.81430862681685    0.19945950875924
H         2.06523009968022   -2.68644818407236   -0.45906428014134
H         2.58694689949415   -2.75935908305754    1.18492792820136
H         4.37409165427255   -3.12912446937277   -1.02341307072510
H         5.62811133103311   -1.69408667504392    0.13455148116944
H         8.67367619462794   -0.17266630853635    0.29536588141719
H         7.82118215674731   -0.95278661526364   -0.96968098957048
H         7.04572721397435   -1.49174520182613    1.98493607896855
H         6.20782988152386    4.61475279571225   -1.18926544260364
H         2.94739373703342    3.18528044886818   -0.35510574771184
