28
 energy: -47.952571506371 gnorm: 0.110772944688 xtb: 6.4.1 (79825abcba525fcdf90b791dcacef51065a7a4e7)
C         1.21071758652766   -0.37358887107690   -0.61906903604572
C         2.67913576831621   -0.15277345993997   -0.32869578195378
C         3.68928672189171   -0.91070352912448   -0.96843147338408
C         3.28150801958953   -1.99534767629381   -1.95204686142827
O         2.34990464836375   -2.94638174068085   -1.43749600903553
C         5.05213040443052   -0.79538778318276   -0.59194704421033
C         5.37305375334086    0.15012695136592    0.39170871777439
O         6.62263564775627    0.29930834376079    0.94371356724877
C         7.66147088895604   -0.67381570659709    0.96227816907900
C         8.54415547604160   -0.77717307220419   -0.26103176669445
O         9.51791784212141   -1.50269943593785   -0.45185780582183
C         4.45037314248264    1.10441024196662    0.82710491226467
C         4.85977609059072    2.16050598770497    1.72016157049798
C         5.33900402645390    3.08908552410765    2.29813418979579
C         3.08961228791883    0.87379103827614    0.55780456307170
O         2.25164218950097    1.73169551948164    1.23712706582810
H         0.90071109964655   -1.29123918003562   -0.11972236696846
H         0.96208018268543   -0.37078475134978   -1.68948635599021
H         0.71786569043714    0.46243714990626   -0.10909419989982
H         4.11521919477263   -2.63056191223340   -2.22579309574742
H         2.87524740785479   -1.46786096469114   -2.82546154639857
H         2.63635798292315   -3.15786333550363   -0.53261453048285
H         5.75465869000186   -1.52118233381025   -0.98311402260475
H         7.29984307591209   -1.69443903786229    1.10537297012376
H         8.27375022108341   -0.42171160704425    1.83504728107525
H         8.08103303977257   -0.20952501678120   -1.08581871416893
H         5.46693550823517    3.82651736397474    3.06051866624567
H         2.82021603981972    2.36481553488208    1.70669973039783
