28
 energy: -47.946568588821 gnorm: 0.124631710123 xtb: 6.4.1 (79825abcba525fcdf90b791dcacef51065a7a4e7)
C         1.46831052403141    0.21795434746195   -1.29485052578342
C         2.77118467593132   -0.04944640643936   -0.57350191357469
C         3.20909279304960   -1.30096765227790   -0.07746184658348
C         2.29912344163967   -2.51750231737184   -0.12473560164958
O         2.88548298599711   -3.68560068629453    0.44871177745138
C         4.52157061643661   -1.38517691247319    0.45422594762288
C         5.24047156744202   -0.20588325088085    0.69300711445613
O         6.41991204348844   -0.25997082410864    1.39615293848070
C         7.54080307982283   -0.94364139322067    0.84597881731142
C         8.19467682551233   -0.18896266868291   -0.28945553863875
O         9.05046476663798   -0.67223467742939   -1.02775858937074
C         4.73870869309402    1.06983454104474    0.42403856956525
C         5.38725564345901    2.32852241667554    0.69897651518005
C         6.11074027242635    3.16384271247068    1.15150465346723
C         3.47528116855639    1.11948144911052   -0.19131829806553
O         2.97502644386586    2.33276917717963   -0.61244909871537
H         0.63750124599470    0.44644445930158   -0.62770630004050
H         1.33617419383008   -0.70497922553667   -1.87653366969330
H         1.51531975891921    0.96160673281423   -2.09901971678862
H         1.95913751341473   -2.80580305844478   -1.11205555783785
H         1.41820236800363   -2.21714824251905    0.45828122486789
H         2.85021668802519   -3.65807217089640    1.42009683823787
H         4.96894400452213   -2.34231940874081    0.69312053014704
H         7.27559708541607   -1.93704915528524    0.47756385863486
H         8.25935290083405   -1.20513198881741    1.63050236946746
H         7.94887609057547    0.88441787730134   -0.35591167188706
H         6.80467393509453    3.97406976349674    1.09327688220484
H         3.39461362685334    3.13469888197928   -0.25823023439510
