28
 energy: -47.952222094900 gnorm: 0.116864376119 xtb: 6.4.1 (79825abcba525fcdf90b791dcacef51065a7a4e7)
C         1.02087820454392    0.02316366349462    0.56554045814790
C         2.45630176393605    0.01691416374115    0.08715967270030
C         3.18105311523465   -1.15594108601302   -0.23419797043014
C         2.47107941166776   -2.48536244154335   -0.43120513851176
O         3.28342892993040   -3.56596919633094   -0.88890647499058
C         4.59304078886026   -1.14684075237567   -0.37053998421628
C         5.28707198614247    0.02652289001808   -0.04479925009175
O         6.63410420010801    0.01501529940054    0.22684598564945
C         7.49573801237736   -1.09785664168708    0.01331158696035
C         8.80532747987743   -0.67211805329950    0.63783069335079
O         9.65500753340731   -1.47118147995686    1.02584831863869
C         4.59336692288065    1.23746108716179    0.01819211657439
C         5.36010302147859    2.42105373701493    0.32105079322309
C         5.84265307133431    3.50421877767857    0.46201410020203
C         3.18755865277133    1.23021982908634    0.05026479040497
O         2.53590481241645    2.43597710179600    0.19576295356520
H         1.01714018036135   -0.52779410421825    1.50573446730614
H         0.27505414730613   -0.45969072991985   -0.08115867383824
H         0.64583628517048    1.04375466055466    0.70573461675193
H         1.59209266919943   -2.43973478481816   -1.06271829734483
H         2.16801887506944   -2.85023143576751    0.55933413705502
H         3.76781442405064   -3.39749522679189   -1.71508907087092
H         5.01370219685556   -2.09893566015425   -0.67036425600809
H         7.54709560078252   -1.33251906418656   -1.05215485022982
H         7.04865107051471   -1.99052683100137    0.46433440249914
H         8.77995698451918    0.41873159477375    0.80026098613372
H         6.20739473423087    4.49788732102577    0.60688856182849
H         3.18665118953215    3.08999544360762   -0.10985908026097
