28
 energy: -47.952138114026 gnorm: 0.119305842222 xtb: 6.4.1 (79825abcba525fcdf90b791dcacef51065a7a4e7)
C         1.09741334643660    0.34387624693654   -0.43673105397581
C         2.59842400254659    0.15392506320098   -0.42211656841430
C         3.31262583148161   -1.06796276219317   -0.39001408549571
C         2.45167614455399   -2.30676023758853   -0.57543809538507
O         3.09398832906475   -3.48986487254052   -0.10129498308181
C         4.72048383409578   -1.08974909695072   -0.21726476611574
C         5.41663441813505    0.09683726370407    0.05098087273547
O         6.75341754622232    0.15603644376006    0.36391163912189
C         7.37569874708298   -0.94069604735736    1.02454593454482
C         8.43297691310756   -1.61847722355995    0.18247848761068
O         9.39834142505319   -2.19612012156357    0.67787355287135
C         4.71458635086771    1.30441274794966    0.07233266511673
C         5.32706420053670    2.50924741408649    0.57606226066424
C         5.45393117152636    3.43210977997673    1.32319113232610
C         3.36025739384573    1.34299382501270   -0.30407478053510
O         2.81891750549751    2.60853418028163   -0.37500979396402
H         0.76686071255696    0.06156211905151    0.56255213799231
H         0.67385829251742   -0.36868545630557   -1.15817308182726
H         0.90632358666417    1.37122312796471   -0.76833310340146
H         2.15772674301539   -2.44967309875938   -1.60823919367575
H         1.57447151702752   -2.24548859022750    0.08251399291672
H         3.91909386216438   -3.53798399620289   -0.61361897964403
H         5.19380545143684   -2.06372865752214   -0.24306750476942
H         6.75599792468315   -1.73056586363763    1.45466143581998
H         7.86567230369250   -0.47572766812015    1.88704155876837
H         8.31399138737733   -1.48167025337218   -0.90568809546816
H         5.90925354996421    4.16004450926569    1.95895432445767
H         3.48475638500446    3.27945078572847   -0.14885684547059
