28
 energy: -47.949126357154 gnorm: 0.108848412604 xtb: 6.4.1 (79825abcba525fcdf90b791dcacef51065a7a4e7)
C         1.23632562634636    0.01326297649351   -0.90087650824270
C         2.69323945888878   -0.01976113060314   -0.49388813884863
C         3.39616831709270   -1.22175713354427   -0.23850346363117
C         2.79245476914647   -2.58371086805931   -0.53991282305319
O         2.28738954662246   -2.83646048361102   -1.85069120302705
C         4.72780376251722   -1.14767465954116    0.24485973698406
C         5.32923418621975    0.06826354999257    0.59748461181874
O         6.49601139237342    0.20321173597563    1.31081433950870
C         7.47219448332318   -0.81211186307845    1.51740157989581
C         8.41602012895408   -1.05971299936231    0.36233064910574
O         9.27878691293818   -1.93006581615415    0.26674990197115
C         4.66958812240184    1.25357883658262    0.26362726305351
C         5.24030523722229    2.41872804860867    0.89387207143322
C         5.90647588602021    3.16895527437478    1.54144254329915
C         3.35901123683372    1.20597169085825   -0.24381711676402
O         2.71958060904480    2.34989660925702   -0.67070973739378
H         0.64431524987583    0.51717499657175   -0.13724727992052
H         0.73935307956232   -0.93398627603419   -1.15258825022226
H         1.13349963824883    0.62193491236769   -1.80689092390348
H         1.98696486853206   -2.74542690810934    0.16616252160646
H         3.57463293161035   -3.32479327039378   -0.32745735999354
H         2.71651861598925   -2.22471874526096   -2.47295381238855
H         5.30333191424190   -2.05475336461544    0.38382342821971
H         6.96685026761141   -1.65822279116674    1.98819485096491
H         8.14964876539062   -0.46902470910920    2.30703141895160
H         8.51457709486633   -0.21297388374010   -0.33788332505241
H         6.63342383805148    3.73157717176204    2.08587394939863
H         3.35632101810378    3.06961566826445   -0.52517007402740
