28
 energy: -47.948057600463 gnorm: 0.121306871091 xtb: 6.4.1 (79825abcba525fcdf90b791dcacef51065a7a4e7)
C         1.28924462331049    0.17605637460266   -1.02439614491124
C         2.63578423266436    0.00649778448800   -0.35550975754658
C         3.51867565705456   -1.09946702069625   -0.39384108995051
C         3.07458030845032   -2.37316481179749   -1.09434726276756
O         4.05032874775613   -3.41274178557120   -1.02871255400011
C         4.77308548167984   -1.16802865497409    0.26504923224331
C         5.34645184526643   -0.01675947516904    0.82218374725206
O         6.58504121104576   -0.00454421015319    1.41730266135614
C         7.52728877889644   -0.98954998016877    1.00690421646109
C         7.89358147873670   -0.82779002718207   -0.45116485176802
O         8.74420334055284   -1.51738904815324   -1.00965555794271
C         4.54190848191349    1.12452300190987    0.86401961383683
C         5.00334565588812    2.40699541229608    1.33607835088188
C         5.26910687713917    3.51131296348711    1.70462338092785
C         3.24659954880147    1.09372985693766    0.31757240313702
O         2.53231522525747    2.27130046205016    0.37047262541898
H         0.66519001649388   -0.71180379504258   -1.12335759740919
H         1.34103670154660    0.72925376040936   -1.97250578840076
H         0.74371862149985    0.74650685002011   -0.26353842503431
H         2.89293327070043   -2.16897220956333   -2.14259255255230
H         2.16166317625314   -2.73646308069753   -0.60369483190928
H         3.73128571236696   -4.28523259945627   -1.31604822692772
H         5.23897066768917   -2.12114065135819    0.04627114145214
H         7.25470291176796   -2.00769617900297    1.29325722598825
H         8.47192811505603   -0.71024498158422    1.48629302106708
H         7.60751268498731    0.15841891451753   -0.85432336265789
H         5.61453077777177    4.45889682108735    2.05700021258009
H         2.83616105446579    3.08216452249810    0.81182604938145
