28
 energy: -47.956841077685 gnorm: 0.107694676572 xtb: 6.4.1 (79825abcba525fcdf90b791dcacef51065a7a4e7)
C         0.92931848959617    0.03916680465046    0.00015004805761
C         2.44055539488883    0.04362291298404   -0.07381750272976
C         3.09788056050104   -1.11280248029922   -0.55830552107283
C         2.47941032188325   -2.47080614284767   -0.84736649746706
O         3.03873843033043   -3.45230844827097    0.02493993311486
C         4.51240714774645   -1.09080787450876   -0.66324329506161
C         5.27047397912281    0.02637712536733   -0.28667863252503
O         6.63678424898815    0.13339850070360   -0.38748556848070
C         7.39593417864578   -1.02610824390139   -0.06232525395393
C         8.75211391913968   -0.55362264683391    0.41078774308457
O         9.67761191199450   -1.33370585597908    0.62512365612283
C         4.61903919811268    1.15729138898747    0.21154985969361
C         5.38620760992774    2.25436712981524    0.74855699042955
C         6.03090591361537    3.21147584747488    1.05560540117103
C         3.21765236957785    1.15857173449319    0.32770202953676
O         2.63505790627145    2.21414462415805    0.99555127901904
H         0.53178501318627   -0.78186342686433    0.59631252669467
H         0.60902047130278   -0.13202138681524   -1.03702180409824
H         0.59385626145160    1.01430284863045    0.37229467025803
H         2.69733423327171   -2.70818444745994   -1.88161461132041
H         1.38421933005703   -2.50000584929881   -0.77089954302696
H         3.92501606375608   -3.08885884343849    0.19229228776695
H         5.12726106808470   -1.92622548314654   -0.97528082060268
H         7.49624076073744   -1.65571379229959   -0.94915005600748
H         6.97752447890867   -1.47070739641861    0.84730835430920
H         8.91300935397371    0.52618278837781    0.56925887071500
H         6.70243201400799    3.94856636867604    1.43921005912761
H         3.25995891458131    2.93208271944134    1.19222177167521
