28
 energy: -47.945807766259 gnorm: 0.129187147254 xtb: 6.4.1 (79825abcba525fcdf90b791dcacef51065a7a4e7)
C         1.16185498827075   -0.00531355756690    0.05246709158744
C         2.66887896054896    0.00874213512575    0.18666546646281
C         3.46805274516269   -1.15681670881050    0.26984303312315
C         2.94818553010007   -2.58041610904278    0.15435091309471
O         3.87558481574228   -3.63676583833025   -0.09297279626674
C         4.87141066077301   -1.03000634359035    0.10587100321436
C         5.45512464894410    0.24402840350629    0.07975586288234
O         6.79314319884394    0.55470633002968    0.11981751936771
C         7.77870723633198   -0.43314205813328   -0.16180779249654
C         7.66019563250927   -1.62155210909317    0.76552094078361
O         7.94354018014111   -2.76949500823359    0.42942691095720
C         4.65135450968871    1.38551954431578    0.12993047407016
C         5.21752084483321    2.71130634489430    0.17730404412811
C         5.54283771401421    3.72654960415663   -0.36067532283904
C         3.25005200132698    1.29458183080093    0.05604132826902
O         2.54375052067419    2.46349113840748   -0.12959886979462
H         0.64823304984356   -0.34065721374388    0.95317255843571
H         0.90234608943474   -0.59918193601366   -0.83499960754494
H         0.73086671536557    0.98248582290687   -0.14857597974015
H         2.15105424385021   -2.52397493031023   -0.57702077853830
H         2.64214165000891   -2.85220044264006    1.17347482413806
H         4.14987560908245   -3.52954424937263   -1.01971901774689
H         5.49693993374515   -1.89918660343479    0.26888673280449
H         8.71242943909088    0.07833774300247    0.08206522166522
H         7.93424717677293   -0.64089422865353   -1.22614549341812
H         7.37948791100125   -1.30743121946561    1.78508528755077
H         5.97004627040027    4.70362352326177   -0.42564985048753
H         3.20027657545020    3.16170538554427   -0.29111068899237
