28
 energy: -47.953175795001 gnorm: 0.118838861207 xtb: 6.4.1 (79825abcba525fcdf90b791dcacef51065a7a4e7)
C         1.06585368170950    0.07888840449080   -0.60310490280460
C         2.54382860832531    0.08994877034216   -0.27938306078453
C         3.35960203367255   -0.99229672641088   -0.68850787963113
C         2.90182031305548   -2.12248655868043   -1.59589009176437
O         3.94102971600643   -3.04796853150090   -1.91312841266028
C         4.74542168451468   -1.00866247222308   -0.38582449568456
C         5.24656850888192    0.09683445968747    0.31510131320309
O         6.56775908527862    0.32639290617786    0.61539743500073
C         7.54535087155663   -0.42687988472926   -0.09410107768462
C         8.13617617623492   -1.53465459658448    0.74855109358583
O         9.23161746109264   -2.03998458932886    0.51261419286028
C         4.49114035362389    1.13265035960624    0.87006050883810
C         5.15149357262900    2.17887455302443    1.61157771260825
C         5.62997426019188    3.04946507389805    2.27422399569605
C         3.12848211605245    1.10005487189204    0.52440451339192
O         2.26990148130932    2.09610001156626    0.93720765073712
H         0.62066952117269    0.87957615227470   -0.01298338520338
H         0.65730874654003   -0.91404556697678   -0.36902194493949
H         0.85910188540983    0.27479624509617   -1.66177890461794
H         2.59004694951843   -1.70127898863558   -2.54398819123919
H         2.01569047524603   -2.60756875726421   -1.16506263194758
H         4.11150248299825   -3.52301072356392   -1.08194586932736
H         5.51204468869831   -1.64004530566361   -0.81823660145332
H         8.42164002613738    0.22404486468866   -0.13066713113641
H         7.22515522928275   -0.75918207269872   -1.08768971974083
H         7.68151313584944   -1.87258384014584    1.69515848986561
H         6.14367479871382    3.82922782453924    2.79334255578951
H         2.84991275734986    2.86050104797965    1.09178333367331
