28
 energy: -47.952311338921 gnorm: 0.122939725230 xtb: 6.4.1 (79825abcba525fcdf90b791dcacef51065a7a4e7)
C         1.02108412768425   -0.00584494182428    0.27697204585224
C         2.50794452081604    0.01111257611830   -0.00282546173771
C         3.18701784834600   -1.16020051598116   -0.41635870840420
C         2.52072863880381   -2.42661172658350   -0.92870327489689
O         2.74413248780242   -3.60331402122446   -0.15244581766608
C         4.59997265489068   -1.13041662576439   -0.53904850244970
C         5.33618455852386   -0.00987081713653   -0.13046840806200
O         6.69207127043555    0.10602891127281    0.06073262262945
C         7.39922423073987   -1.10784910725818    0.29079474622325
C         8.81857695226299   -0.59314857551343    0.37339772240461
O         9.84235578412291   -1.27108082303214    0.43085207832540
C         4.66386615431588    1.19848194552464    0.06812041066185
C         5.38130812672633    2.36603681179730    0.51822243976978
C         5.94946325255224    3.36931060993452    0.82904899843168
C         3.26567265557120    1.18818296317584    0.21754215380622
O         2.48395568797428    2.30576660513701    0.41653569346039
H         0.67560444735307    1.02715993282363    0.30980385752844
H         0.77406623725926   -0.48340477355734    1.23537719511778
H         0.52218699883936   -0.60434134190723   -0.49427405185951
H         2.89876950687598   -2.60465852155165   -1.92814956684805
H         1.42503469648729   -2.35843869750130   -0.89787556402276
H         3.57682044129703   -3.45023547744797    0.32587227681476
H         5.13390343010322   -1.98925120867660   -0.92719334300743
H         7.25023710611244   -1.76602034666502   -0.56800455669585
H         7.02183947782089   -1.48496547368474    1.24762930794144
H         8.83386736143341    0.49642615667407    0.54536668495210
H         6.35677422661681    4.23660038392813    1.30160426900686
H         3.09240224145466    3.04765371477935    0.57149366104604
