28
 energy: -47.948262736801 gnorm: 0.119499941665 xtb: 6.4.1 (79825abcba525fcdf90b791dcacef51065a7a4e7)
C         1.30824120531895   -0.03566172056074   -0.67447162107543
C         2.77435237628847    0.02389514931191   -0.30528461166528
C         3.64707970256907   -1.06166600941876   -0.55832349377899
C         3.10546877334956   -2.25012896544383   -1.33578669132207
O         4.09785496010772   -3.26794926859383   -1.46355483594381
C         4.98427059660778   -1.00781001232237   -0.08779061350536
C         5.37472338154643    0.12723742135287    0.63593759019873
O         6.68413094158327    0.47548432202319    0.86527424491531
C         7.57012468477666   -0.61205040238612    1.10771402307823
C         7.92385612049587   -1.26661221444103   -0.20861607978291
O         8.22957245949698   -2.43073875510444   -0.45834222573628
C         4.51984379872658    1.19685374212630    0.91282707108974
C         5.11781457282252    2.39698885792020    1.44443393361625
C         5.19083145794506    3.53974521365671    1.78317892612519
C         3.20837851062374    1.17005677613179    0.40615290972338
O         2.27644497405242    2.16107283654216    0.62764802968337
H         0.80405476808492   -0.45449504887136    0.19610743393465
H         1.01219531139144   -0.76091014643124   -1.44518116934735
H         1.02616078973523    0.99345128207214   -0.92601465692900
H         2.60429367228475   -2.02196397924319   -2.26867076844243
H         2.27977756677497   -2.64682339464341   -0.72997261998499
H         4.33215173583854   -3.44806428244366   -2.38997486474972
H         5.56412181043421   -1.88200292753616   -0.35778069440793
H         7.10424403305548   -1.41608047552816    1.68165970492559
H         8.51052251023310   -0.27641129175771    1.55845419291858
H         7.98415605211982   -0.51251684794437   -1.01153843801004
H         5.38248239399273    4.49695656384875    2.21725106475576
H         2.63329967841172    2.82702599775376    1.23902088516747
