28
 energy: -47.955686671232 gnorm: 0.109149532928 xtb: 6.4.1 (79825abcba525fcdf90b791dcacef51065a7a4e7)
C         1.16572234517300    0.09454294439496    0.32242809169032
C         2.66812241304662   -0.03228418224088    0.19579099692074
C         3.48489355604385   -1.18796602969709    0.15825351507786
C         2.85239451158028   -2.56975171179888    0.12911748749431
O         3.80459039402171   -3.63155872613460    0.07432627565642
C         4.89161151516063   -1.00683371736974    0.13148016212073
C         5.48925915902023    0.26098047708562    0.13722714623107
O         6.84043684137479    0.51130967352257    0.14580128885608
C         7.80470030580819   -0.47803414916503   -0.19754765702763
C         7.76168749133019   -1.50869293620683    0.90798135414150
O         7.83044656296223   -2.72580388860710    0.75009104481390
C         4.70507007061772    1.40358832729038   -0.03901338765557
C         5.20228843838634    2.72664017056812   -0.32677526810821
C         5.74911093945925    3.74882025963884   -0.61331449795593
C         3.31479000047033    1.22226797522732    0.06879319458383
O         2.46987997889453    2.26100849661964   -0.25803741152428
H         0.94869154511351    0.89694077790298    1.02711848944078
H         0.73643425114809   -0.85243017756140    0.67820232255234
H         0.65886992699927    0.34587571303094   -0.61664021946244
H         2.18696597314924   -2.69235249306532   -0.71686262810101
H         2.21345879672098   -2.56352360157985    1.02235065566384
H         4.18253119973461   -3.57716838111593   -0.81998513891303
H         5.59128890543669   -1.83305694635509    0.16527448790722
H         8.76469881873697    0.04284495788285   -0.20080278414929
H         7.61239404234024   -0.88591260740089   -1.19595731529410
H         7.62689934745665   -1.03757449045824    1.89634352597391
H         6.05530110764886    4.67356047791677   -1.05206884438092
H         2.93549821550651    3.11403565897985   -0.24538903498731
