28
 energy: -47.951633377058 gnorm: 0.115368919375 xtb: 6.4.1 (79825abcba525fcdf90b791dcacef51065a7a4e7)
C         1.05680549268501   -0.08161992511236   -0.43354236511605
C         2.55472115605747   -0.00640067960001   -0.23374551998601
C         3.42572521967152   -1.03839197163983   -0.65856385084212
C         2.91174077236751   -2.27610902602704   -1.37557997838114
O         3.91940600520210   -3.24543042984727   -1.08897917611029
C         4.81625888951167   -0.86896906858723   -0.43474883143945
C         5.38002756171455    0.21593739594531    0.25060614320957
O         6.66908384633169    0.29582270789246    0.72004368188303
C         7.32008067548389   -0.94651955040415    0.96352382404271
C         8.40194751882356   -1.10994093435204   -0.08010428029081
O         9.48294131368148   -1.69511536286379   -0.07381661478740
C         4.49272116502789    1.22002608649725    0.64564948901404
C         5.05579520225257    2.38993126838259    1.27395571132848
C         5.49314415167215    3.30550790212711    1.90357230350490
C         3.12357134257550    1.16261031545843    0.33019711294621
O         2.27134159185925    2.23174676805810    0.50433716268007
H         0.58567531080601   -0.73629884842854    0.29923663847605
H         0.94485244507356   -0.51621233886954   -1.43664635741580
H         0.64152397455114    0.92077583812082   -0.27650470373305
H         2.77820260205416   -2.08984805369633   -2.43434475910095
H         1.97509915341977   -2.55103792200685   -0.87233082276794
H         3.65220262622915   -4.10805046747317   -1.44964452538713
H         5.46952021082454   -1.62781176582082   -0.84795912829832
H         6.50702713844506   -1.67484985443381    1.00096312708476
H         7.75713774784898   -0.92304862562151    1.96781392934001
H         8.18492079559367   -0.48195804094395   -0.96073877000838
H         5.94789643039286    3.97425762701475    2.60169582130274
H         2.65367772535347    2.88076819170016    1.11850809710685
