28
 energy: -47.951289854253 gnorm: 0.120473547257 xtb: 6.4.1 (79825abcba525fcdf90b791dcacef51065a7a4e7)
C         1.28374685342737   -0.11094820564886   -0.90328238537702
C         2.72911420258430   -0.00781752514151   -0.46784544797849
C         3.65321865853865   -1.01845108962987   -0.82669842469747
C         3.27843470906013   -2.14374509936584   -1.77721723787115
O         2.46110197154053   -3.12032039809846   -1.13271658042298
C         4.99385601048790   -0.94747684869258   -0.36840233526714
C         5.39319633035852    0.09095241024762    0.48410019704139
O         6.64588337810544    0.20384804711453    1.03767864661398
C         7.59193080761331   -0.83971546885446    0.83161268464585
C         8.46069255541455   -0.51663048934869   -0.36303000421247
O         9.28958350170787   -1.22662969792353   -0.92858915500975
C         4.45050707617770    0.99646225097166    0.97700472054975
C         4.82163862274524    2.02639136123732    1.91615678761343
C         5.14289608641385    2.73652471740613    2.82085341054078
C         3.19633923190191    1.05572217599608    0.34381494603282
O         2.32423332323721    1.97173723784386    0.89155644533517
H         0.72413087191994    0.80072486571248   -0.69539931447539
H         0.90689829605019   -1.09274911784719   -0.58441909450231
H         1.26781246618324   -0.11898889146402   -1.99945676668902
H         4.14309452473491   -2.68134662378454   -2.14715838718355
H         2.71423318451034   -1.84823558149824   -2.67192047888348
H         2.81445444047272   -3.34493481922694   -0.25506011999794
H         5.81702827749477   -1.58853778103588   -0.65954428741605
H         7.24681204051880   -1.86790666512525    0.96060370659202
H         8.40091079071758   -0.65304626136829    1.54636745215134
H         8.31357595736357    0.53135477584199   -0.67458065341234
H         5.59711936507303    3.34931928976592    3.56889505106959
H         2.74762623047908    2.55073395182597    1.54738943783174
