28
 energy: -47.951695975359 gnorm: 0.120536017959 xtb: 6.4.1 (79825abcba525fcdf90b791dcacef51065a7a4e7)
C         1.30026727943728   -0.09425340634658    0.95340723904273
C         2.71099432042699   -0.12809788708590    0.40748435064345
C         3.44816374090821   -1.28301348888049    0.05128791687507
C         2.67359303890764   -2.58449118437028   -0.07689816360920
O         2.85795570828426   -3.10809807530467   -1.39179718970547
C         4.85200043520730   -1.28273221849052   -0.15273074231331
C         5.45689667560028   -0.02963999583540   -0.32133976342207
O         6.76118862178982    0.15068578201979   -0.71469011022269
C         7.75436080167398   -0.72274668965199   -0.18817470669960
C         7.73947101895652   -0.64250250367119    1.32167336463823
O         8.37628807188890   -1.41448632816417    2.03548093431659
C         4.69226354693529    1.13948971545516   -0.31518624276058
C         5.28606704508354    2.41342823219699   -0.63918821118831
C         6.12907934898660    3.24955225588042   -0.76646195443159
C         3.40046704223795    1.09844111812290    0.23884878107588
O         2.76578422212541    2.26973210482013    0.59230060811778
H         1.24670412092744   -0.79622496655463    1.78521257936894
H         0.59614527764003   -0.42187546276414    0.17591276376285
H         1.01754161598238    0.92689245315725    1.23491063294213
H         1.61242287239172   -2.46899499774096    0.10772837458147
H         3.14213437581523   -3.34457921270524    0.56253778600381
H         2.58248657161098   -2.48203696986756   -2.08299521858702
H         5.38236489607967   -2.22366664213593   -0.07093050015676
H         8.69977970934746   -0.26498332902266   -0.48743810505369
H         7.59451618159998   -1.76484784390249   -0.48590489190401
H         7.07767709228389    0.19083240286117    1.61246873769849
H         6.75436709680299    4.04641572172560   -1.10620616262272
H         3.48054283713318    2.92667997360960    0.54587554393222
