28
 energy: -47.951882961499 gnorm: 0.122957068113 xtb: 6.4.1 (79825abcba525fcdf90b791dcacef51065a7a4e7)
C         1.34733131625568   -0.09448711121947   -0.88454832261715
C         2.73211052828369   -0.01845002115056   -0.27962441496897
C         3.52144875090895   -1.16781819797034   -0.03462916852569
C         2.93358709912115   -2.55462694131482   -0.23813794209952
O         3.02220640670580   -2.85684562942307   -1.63023122241429
C         4.86054563100571   -1.02545416534139    0.41139009668116
C         5.44406614514750    0.22173542508803    0.67328800919844
O         6.75990301704795    0.39339083175932    1.03039738443319
C         7.58573698897316   -0.73502779647522    1.29716203994794
C         7.76274637113140   -1.53073512517743    0.02365524434031
O         8.29743064189550   -2.63741122229543    0.00373095604528
C         4.64584834665697    1.35307769636222    0.48760283731287
C         5.15367873673564    2.65212125617655    0.85515330905724
C         5.93083389155777    3.55659573555802    0.91782327365700
C         3.33976882488987    1.23516049082493   -0.01996964328764
O         2.62826586969470    2.36623015593590   -0.35778321732240
H         0.76440229848945    0.57129730246503   -0.24857812910874
H         0.95373919169556   -1.11820664777480   -0.81595376101236
H         1.21183091367436    0.23455771257075   -1.92150828795172
H         1.88121553158909   -2.51902618101999    0.01633233539575
H         3.46254281575794   -3.31791949641969    0.34814991540365
H         3.92703306358973   -2.58782207219293   -1.86369538595693
H         5.49634885442220   -1.89443332877205    0.52956290248406
H         7.15390778519479   -1.20735592524257    2.18223405027606
H         8.52734133605221   -0.21205156693971    1.49727576157033
H         7.31364488637602   -1.17966927282068   -0.92082389245429
H         6.25621020932293    4.57415754812448    0.92784798533819
H         3.01036457070456    3.23185824046025   -0.13573758888699
