28
 energy: -47.953674657825 gnorm: 0.115041847260 xtb: 6.4.1 (79825abcba525fcdf90b791dcacef51065a7a4e7)
C         1.19953682404853    0.19505809019402   -0.87605221834884
C         2.58854223284906    0.17578820266697   -0.27636838799876
C         3.37887586910497   -0.99751550477306   -0.32980874978340
C         2.81122736916276   -2.34328082802341   -0.75043509023891
O         3.61568184694090   -3.50636035010643   -0.55753036679694
C         4.78830107777343   -1.01001188206455   -0.16935441559330
C         5.41357698954247    0.20925022397941    0.12560073516182
O         6.77538384316646    0.35185249233211    0.24207412749259
C         7.47358712219033   -0.66876280158038    0.94730482453443
C         8.02167299384546   -1.86817777246836    0.20750239381420
O         8.72809844105915   -2.68224438664935    0.79849720400432
C         4.65548368635264    1.36814875898724    0.30948845360353
C         5.19199773341185    2.62103442681928    0.78164244474430
C         5.80148457426001    3.60935914281882    1.06041075987339
C         3.26143245537429    1.35644561905271    0.12547156695431
O         2.44811404179537    2.46171920238590    0.25414371092804
H         1.20110934397483   -0.43180559861939   -1.76744026714094
H         1.00591233287098    1.24657308588871   -1.12991722235479
H         0.47536657504811   -0.15618905972239   -0.13166003541857
H         2.72435118695701   -2.29169502950611   -1.82899889925889
H         1.82514735027513   -2.52253652895448   -0.30137304602883
H         3.66651601750389   -3.72772921680775    0.38798651813291
H         5.45100267341013   -1.86008906335442   -0.27673560556416
H         6.86140851267420   -1.03878483092410    1.77267978975179
H         8.42030742404582   -0.16722872022621    1.17611177349003
H         7.65744612865802   -1.91855818932939   -0.83258453544028
H         6.29953119533437    4.48454879308287    1.41733499976958
H         2.95047632504163    3.25261376316681    0.51247217068635
