28
 energy: -47.951639353554 gnorm: 0.123415915496 xtb: 6.4.1 (79825abcba525fcdf90b791dcacef51065a7a4e7)
C         1.06444745302278    0.02449102462363   -0.05942554639323
C         2.57239818768333    0.05843267232763    0.05999217665192
C         3.32753441205219   -1.13128563016595   -0.07589142739837
C         2.69305476664733   -2.51137349212534   -0.02085775432495
O         3.55800495365985   -3.64308758103342   -0.11139839246222
C         4.74350497648878   -1.05586236460946   -0.03442026875840
C         5.38077021778404    0.18802409332956   -0.14028847270754
O         6.73972042818982    0.31969902256942   -0.29628655822286
C         7.53016057799939   -0.85694136721886   -0.42749438556592
C         8.05958362219327   -1.30276295290143    0.91684797603408
O         9.05349108916496   -1.94908316338564    1.24155455438473
C         4.67232032565544    1.37842704011265    0.04028157949016
C         5.31199742597250    2.67111161067946    0.02357788697889
C         5.85819796521198    3.69009762054111    0.32241598836195
C         3.28224090985432    1.27379842738631    0.22497071603801
O         2.46819327560740    2.38414394798553    0.16068749176052
H         0.62241289687038    0.22131851435561    0.91699526434886
H         0.80851412284466   -0.94453393838726   -0.51010328070562
H         0.74331410932676    0.71423805232122   -0.84875389689058
H         1.85078761714430   -2.64211098441042   -0.68943998899123
H         2.36625421955792   -2.63027611332034    1.02087479316564
H         3.92084918148432   -3.72689288484713   -1.00968075616354
H         5.29227728204830   -1.98805768885159    0.02211441823807
H         8.34955056667972   -0.55094122770750   -1.08162491312875
H         7.03100683054574   -1.67877155935462   -0.95247919799160
H         7.38944201347835   -0.95377850886076    1.72065162016896
H         6.38317388203532    4.60017587402427    0.12861160956825
H         3.04126805827114    3.16613182395862    0.22921427806696
