28
 energy: -47.954738722037 gnorm: 0.108732073546 xtb: 6.4.1 (79825abcba525fcdf90b791dcacef51065a7a4e7)
C         1.66676046050770    0.38099478408994   -1.38994684292301
C         2.91648783269339    0.14119418312373   -0.57140838931053
C         3.61242166725469   -1.09145420816872   -0.55194724550624
C         3.26441910889072   -2.35890135304676   -1.31530009718877
O         4.35975540122739   -3.19402871569731   -1.68935076912661
C         4.84039482365147   -1.14438927063649    0.15633304196980
C         5.29127755952793   -0.08287372661521    0.95286181668288
O         6.50339529712921   -0.12323240970913    1.59905151692910
C         7.55128626389080   -0.85006769980157    0.96649423327373
C         7.38537863850403   -0.68562427384409   -0.52740504523826
O         7.45393869349815   -1.58898198970771   -1.35822427178251
C         4.53432959802340    1.08792622357840    1.04131081064019
C         4.93642878927660    2.06043235342710    2.02774238802264
C         5.21775652084622    2.82245578103234    2.90304046156238
C         3.32499055820840    1.15798128675126    0.32718941624182
O         2.55459078831173    2.27528876838907    0.56756669482319
H         1.03130801976414    1.14186884718808   -0.93739401552138
H         1.18018155479874   -0.59717891333308   -1.50843249881646
H         1.90205831199443    0.62303036380882   -2.43300510024568
H         2.67205669027839   -2.16645230942718   -2.20162880471844
H         2.68643915825012   -3.04209878718153   -0.67864982563829
H         5.13483262293303   -2.72419222768180   -2.04162827576342
H         5.37282112247646   -2.08746083466747    0.17809536031090
H         7.58284418138576   -1.90376107174969    1.25225140481627
H         8.45815582317062   -0.28643017132074    1.21158344862972
H         6.88351686722439    0.25255155139013   -0.81885161086008
H         5.52602572556834    3.62441880537334    3.53804256642236
H         3.02210231843983    2.69085155626851    1.31144585628419
