28
 energy: -47.956437265853 gnorm: 0.113059307439 xtb: 6.4.1 (79825abcba525fcdf90b791dcacef51065a7a4e7)
C         1.16154111028298   -0.01903478455047   -0.41847311017067
C         2.65923899018958    0.05132848757487   -0.21530294284050
C         3.48890131815846   -1.07288756475111   -0.44317001321745
C         2.98461795689075   -2.35089276242576   -1.09327511442432
O         4.01504452622076   -2.86656011636495   -1.93554673649776
C         4.84945427082027   -0.96232227501589   -0.05709729332435
C         5.41232434945510    0.22692605566761    0.42605306697621
O         6.59161202259857    0.15630194847430    1.12798766826588
C         7.17150045898788   -1.11836620872554    1.38380835483851
C         8.00091383855174   -1.59583984268996    0.21316989323777
O         8.72027456424725   -2.59051489395123    0.14868796495782
C         4.62787604095708    1.38204287672235    0.46977889289502
C         5.16375367916024    2.62206282131008    0.97543183022808
C         5.69581773624156    3.67862099346947    1.13841768415478
C         3.24847753487259    1.26298872922504    0.22388485626407
O         2.40938610444495    2.34595853192935    0.37479885814598
H         0.72194691287497   -0.70650349048507    0.30379895074758
H         1.05412112266889   -0.38170506210979   -1.45024483183917
H         0.71542589003022    0.97934592509394   -0.34015325684664
H         2.04755985968659   -2.19556383788868   -1.61414313853068
H         2.83558727512575   -3.10156123948014   -0.30560143638842
H         4.19727669702791   -2.21490295953526   -2.63391974183836
H         5.47543590606209   -1.83907057773803   -0.17021115389668
H         6.46112604340820   -1.87302575400856    1.72845301974289
H         7.82030363832859   -0.88976483740657    2.23643032971405
H         7.92542603773136   -0.79041221038746   -0.53687553071780
H         6.03264338489235    4.68244046823336    1.28088597884397
H         2.93982176831953    3.14861551499620    0.23697491573133
