28
 energy: -47.950914969421 gnorm: 0.116136195187 xtb: 6.4.1 (79825abcba525fcdf90b791dcacef51065a7a4e7)
C         1.03067261478772    0.01107926864652   -0.39111711816744
C         2.53040885272831    0.02179831365833   -0.19110623890730
C         3.30674006273816   -1.11307893936860   -0.52798630346869
C         2.68064662259293   -2.40325590075442   -1.03165886814183
O         2.31721145744984   -3.28839362454928    0.02737810346851
C         4.67329094424264   -1.28396710067648   -0.18781415242408
C         5.30003382078623   -0.11571490624314    0.26710205914796
O         6.66291500436000   -0.02085260588986    0.41534304051265
C         7.55606863010437   -1.10255489511627    0.17308184367553
C         8.93202303987024   -0.47612131143929    0.14793305491757
O         9.82244031511740   -0.96784717460420   -0.54226907677408
C         4.63090602706659    1.08583300833340    0.51228885551380
C         5.40481043862681    2.25424018407607    0.85345716528741
C         5.96775689406654    3.25726364286438    1.17440410722990
C         3.22760459540336    1.09219741067783    0.42238571532081
O         2.55858296887014    2.21010896749563    0.87222664190107
H         0.44939813825708    0.47049717545252    0.40800012817813
H         0.76877736884120   -1.03135177700891   -0.61996217540623
H         0.73509949950681    0.66557273758393   -1.21948398261099
H         3.45546450993643   -2.87916603451456   -1.62045020720029
H         1.84464900012633   -2.27788146062032   -1.73275255048605
H         1.50394984850617   -2.96728193546141    0.45291694633273
H         5.18223858692684   -2.23735171919735   -0.26106304000594
H         7.41169438245401   -1.66941327689278   -0.74927949275948
H         7.53156178029190   -1.84683973949029    0.97657911583474
H         9.04114006060359    0.49836049979067    0.65336246841542
H         6.27642841859052    4.27809963140764    1.23779212733824
H         3.19516701190837    2.89653640319884    1.13336605739341
