28
 energy: -47.952773971854 gnorm: 0.119909533212 xtb: 6.4.1 (79825abcba525fcdf90b791dcacef51065a7a4e7)
C         1.52299246647135   -0.14382355804581   -1.05084580785106
C         2.84249485325757   -0.03493911859974   -0.31846225277051
C         3.50358812127563   -1.18635232934550    0.17278923122570
C         3.01002117393397   -2.58253876083641   -0.16968815372638
O         3.10223388065247   -2.73004235906507   -1.58632244880462
C         4.76237637363798   -1.06555660192340    0.81562800734709
C         5.40539000162943    0.17838204687914    0.87660910250229
O         6.68431431823629    0.23838906823641    1.37577952100448
C         7.48149144827647   -0.93908070765291    1.30819785466365
C         7.70634927675010   -1.28662236626894   -0.14609090139204
O         7.79590621792026   -2.42494167973986   -0.60131054680600
C         4.71096320840072    1.33950819670572    0.52858116714121
C         5.29856749714123    2.64707575716027    0.68822910017067
C         5.61566988343385    3.78702506447697    0.84926750380845
C         3.43444744414549    1.22429123308797   -0.04987414708902
O         2.73202064645531    2.34328733932520   -0.44245198444244
H         1.25249032732708    0.83881728483457   -1.43656432756565
H         0.80198198647446   -0.52921675178127   -0.31651778788522
H         1.58096661960577   -0.87753921608480   -1.86338329078628
H         2.03097002051712   -2.68143970520462    0.28328634498461
H         3.65746182447245   -3.25134062255317    0.41312211266402
H         4.01878413086410   -2.76693925704243   -1.90906805476429
H         5.24634390150499   -1.90699059855319    1.29635620271048
H         7.14694070605399   -1.84644935282190    1.81582047640370
H         8.46764706289589   -0.67734740160505    1.70714793143619
H         8.15609054096530   -0.47317000584593   -0.74023589151120
H         5.93112976331847    4.80408428189330    0.76279276417144
H         3.13099382697936    3.16167437207947   -0.10233622834457
