28
 energy: -47.957078169989 gnorm: 0.099942884828 xtb: 6.4.1 (79825abcba525fcdf90b791dcacef51065a7a4e7)
C         0.92504684451252    0.17753164128688   -0.12570657306604
C         2.41094787095263   -0.03656503058276    0.06294333521878
C         3.18716393149974   -1.21548744534084    0.17136499724524
C         2.58290825884618   -2.60410351995027    0.04153394068426
O         3.21913683667385   -3.36058000239251   -0.98806294289862
C         4.59644447676253   -1.21533986148819    0.33356694751998
C         5.30889310608188   -0.01216999898707    0.23677951266096
O         6.66725655892779    0.19018808398007    0.18862045243952
C         7.44157635643270   -0.93340243742576    0.59416567374094
C         8.93913922335191   -0.75149489931868    0.49161256483931
O         9.69250294232338   -1.71229250716301    0.34903874378936
C         4.56126263696899    1.15453615122105    0.05954687713721
C         5.25943321421295    2.41639673460905    0.03188972398172
C         5.93270282774037    3.40071473137786    0.09351626194565
C         3.15518541212310    1.16936703888056    0.06978812404842
O         2.42930863783688    2.33801886080370   -0.01405028513635
H         0.36652762932414   -0.71867326241627    0.14337754737288
H         0.68224160923553    0.59770396565549   -1.11166929940334
H         0.62500125385647    0.98875101390798    0.54794957243466
H         1.53057785044382   -2.54702431417013   -0.20916732468414
H         2.61837746148176   -3.25532647470272    0.92515926899544
H         3.35910604367310   -2.79637014446189   -1.76759249668984
H         5.08859026164424   -2.17328206094834    0.44964709432644
H         7.20148452013233   -1.73115099874005   -0.11214582276911
H         7.21284403940459   -1.11637967897715    1.64980256206006
H         9.38567709621368    0.23283756701197    0.71223382411345
H         6.53048085046458    4.28589307395427    0.07064690654295
H         3.02983411320420    3.07579732413516   -0.21321794269218
