28
 energy: -47.955493924473 gnorm: 0.108151964283 xtb: 6.4.1 (79825abcba525fcdf90b791dcacef51065a7a4e7)
C         1.17192559058665   -0.01390693992540   -0.71911891448770
C         2.60646191157621   -0.00741372154328   -0.23808729745521
C         3.49839628605189   -1.09780810966064   -0.37815102921176
C         3.10380122706768   -2.40541052765675   -1.04501404587382
O         4.07780213872379   -3.12800660057269   -1.79753670288957
C         4.83372831462716   -1.01424636906240    0.09332215365074
C         5.35446919566477    0.15597618597674    0.66251164806177
O         6.63813291889796    0.29678559344813    1.13240472660650
C         7.61509309822107   -0.73317138106587    1.02642755870480
C         8.07064441788940   -1.32086125247498   -0.29015727848308
O         8.66544311797744   -2.39658281623783   -0.29749565334997
C         4.51146605368986    1.26983880703456    0.64762129177762
C         4.93075345788564    2.52819033263234    1.21440936166446
C         5.26289798456738    3.61659249552750    1.57639343480889
C         3.14155802891768    1.16693805197836    0.34738565358876
O         2.27842810222465    2.19952841834887    0.64476910276983
H         1.15075404653912   -0.78067591230990   -1.49316692285657
H         0.78677759960585    0.98502551099275   -0.96694273291979
H         0.49597433277369   -0.27883766668874    0.10235441886966
H         2.27878887504882   -2.13120064568099   -1.69128953832966
H         2.82981740020465   -3.06108132429191   -0.20765402815114
H         4.33043364803120   -2.62684682473133   -2.59164416849199
H         5.42466798451979   -1.92205068383355    0.08920315675589
H         7.27228665082670   -1.59168784359541    1.60811132729257
H         8.53673221057091   -0.34669880730966    1.47519105680982
H         7.94283542410345   -0.70532708510415   -1.19666859301347
H         5.77614935642316    4.46764088457907    1.96842907427718
H         2.79812941520638    2.98308416767411    0.89087192070376
