28
 energy: -47.951663824387 gnorm: 0.115186383069 xtb: 6.4.1 (79825abcba525fcdf90b791dcacef51065a7a4e7)
C         1.35475698273423    0.16695583123854   -0.86020434664470
C         2.72714344055788   -0.00908509937291   -0.24791925723726
C         3.49590496107726   -1.19177181124996   -0.12799199775632
C         2.87462666104281   -2.56327065263646   -0.33593383679123
O         2.77701048973632   -3.01882251019263   -1.68502864227819
C         4.81079624332855   -1.06936446912846    0.39013780183934
C         5.41264747207130    0.14223172694708    0.75671427289194
O         6.72885952808309    0.35295032036576    1.09078438541132
C         7.56668908166333   -0.75590803439940    1.39895399877709
C         8.04571744858266   -1.47826959115486    0.15999167744515
O         8.62432581718210   -2.56278394436431    0.15242843292107
C         4.69560737327777    1.31251737541264    0.49623214266579
C         5.24722887308091    2.64217975577123    0.58684596580842
C         5.55202170239078    3.77547824260586    0.36614800506910
C         3.39290209275804    1.22196105557163   -0.02543489130675
O         2.61191431807350    2.35620697137212   -0.08215656468091
H         0.60066946716610   -0.05977971321135   -0.10689417238486
H         1.27469925231622   -0.46045956777868   -1.75884907020854
H         1.09984725841002    1.19669058276661   -1.13694284994087
H         1.90653290612317   -2.62048325793875    0.14679760351626
H         3.53192538264779   -3.31034760089393    0.12880001060254
H         3.64507840216053   -3.40080496259650   -1.89982615900495
H         5.38589255227595   -1.97877398342834    0.51493321939737
H         7.19395727577701   -1.56168262154388    2.03513093635268
H         8.48706606386020   -0.39882089470559    1.87388911579899
H         7.80193404672348   -0.93447544539274   -0.76836051606394
H         6.09465489059620    4.69577779823515    0.36567583972348
H         3.04431225983120    3.05428003111247    0.43778736216508
