28
 energy: -47.950696574341 gnorm: 0.124943390930 xtb: 6.4.1 (79825abcba525fcdf90b791dcacef51065a7a4e7)
C         0.95479578363225    0.05425090549384   -0.36812390675712
C         2.43014385140207    0.02995921206670   -0.03333138559119
C         3.19320069387008   -1.14950716903972    0.14196272996568
C         2.56623366842604   -2.51102255970969   -0.10987816679678
O         3.43493642188998   -3.40346715031238   -0.80702334453851
C         4.55545236524129   -1.15207900702867    0.53774668544724
C         5.30335858511980    0.03244709316925    0.49189050293987
O         6.64122518131512    0.07335509072254    0.80311207369415
C         7.38357205867824   -1.13039371530902    0.64062004960452
C         8.77767536071729   -0.79221333988938    0.16269531686770
O         9.63845484981253   -1.64240209439842   -0.05468449710949
C         4.62349901073819    1.21842487620855    0.20411695482401
C         5.22949674840686    2.51530799612731    0.38120481657996
C         5.79587293269414    3.56515575796998    0.43606293274148
C         3.25296711400411    1.18128080135373   -0.10835806751016
O         2.58749314192882    2.33433248846247   -0.46513426801451
H         0.49906415011024    0.09374825024174    0.62095740973282
H         0.58377734505343   -0.87525134447980   -0.82198792612350
H         0.67206639549657    0.94695235202039   -0.93826866815599
H         1.63020220688937   -2.43064182283023   -0.64922266978421
H         2.51675059017639   -2.98857911027138    0.87786385391472
H         3.73421622190789   -2.80201977535445   -1.51007606386099
H         4.97474770752633   -2.14598075476502    0.63616451106862
H         6.82517389050588   -1.86246063851758    0.05308937762703
H         7.51102982029025   -1.58400014188376    1.62964184523500
H         8.91393288934245    0.28748651398441   -0.01803190324408
H         6.23792028605995    4.48170798850399    0.76152939327345
H         3.06022365316090    3.16014534175000   -0.26720838249683
