28
 energy: -47.951013285690 gnorm: 0.110988781956 xtb: 6.4.1 (79825abcba525fcdf90b791dcacef51065a7a4e7)
C         1.37368309153595   -0.06041412958182    1.01982903807795
C         2.76616622283086   -0.10215790558047    0.42942559508415
C         3.42702596455038   -1.29978561279204    0.06462841995308
C         2.64220752160698   -2.59605648905102   -0.05359789989662
O         2.91814008149127   -3.15113010985444   -1.33923693091462
C         4.80741021453075   -1.32353341691270   -0.26149506595340
C         5.42417379818028   -0.06874313174966   -0.35984450058488
O         6.70565398730005    0.02040450990251   -0.84798443365878
C         7.78286385690642   -0.60085122079416   -0.15505301859036
C         7.67969754533162   -0.74782509128955    1.34629884693508
O         8.30619235119378   -1.57018589734713    2.01131252544570
C         4.77205095357861    1.15581745933262   -0.19628065895999
C         5.58970905125983    2.32753332105806   -0.39380629850881
C         5.93654481436165    3.39958876553307   -0.78924757732399
C         3.42394364147557    1.13245812800094    0.20301748397868
O         2.70608067883571    2.28747641287129    0.42724632671753
H         1.40464385090474   -0.58585885754899    1.97402109318541
H         0.61506225005983   -0.45654850322104    0.33048613310407
H         1.13230751751441    0.97582913339137    1.28412917539752
H         1.57609731736277   -2.43768025423752    0.05518836656302
H         3.04888103901172   -3.28560084379178    0.69825871089782
H         2.77493104259713   -2.41949521646753   -1.96357019368763
H         5.36963624765759   -2.21790268315818   -0.50095453784825
H         8.59274988810071    0.10230458216530   -0.36140059036620
H         7.92968662618946   -1.64645644446849   -0.44715090081931
H         6.99088210971344   -0.00156136769361    1.77711663481005
H         6.41042674496209    4.30248502586602   -1.10802105964614
H         3.29591226350832    2.99111264548921    0.10848243272242
