28
 energy: -47.947559109668 gnorm: 0.118335339721 xtb: 6.4.1 (79825abcba525fcdf90b791dcacef51065a7a4e7)
C         1.36138582211318   -0.02564569598951   -1.00116603438141
C         2.73602843821364    0.02224598758240   -0.37077560104766
C         3.55355085520254   -1.13346230247488   -0.35981427493458
C         3.06287963207932   -2.45010026471995   -0.93941919556996
O         4.21771736622476   -3.16614513326020   -1.37616027856730
C         4.85552518744821   -1.07930137375837    0.20081982428567
C         5.35921258243402    0.14496922110342    0.66128600393275
O         6.62817116412069    0.35701343528213    1.14419462732687
C         7.47642020265387   -0.77069542486004    0.95647133667481
C         7.77565567044779   -1.15647520142180   -0.47458915574907
O         8.66181382669607   -1.92721353134326   -0.83749738072834
C         4.51168346539438    1.23697814013325    0.86321889149400
C         5.08136345933917    2.37382530287256    1.54405840270632
C         5.25632971382939    3.52893562179804    1.79119943700063
C         3.20626682731962    1.14948557042926    0.34784480807361
O         2.35079898607141    2.22420985267443    0.46105054462709
H         0.67256750213556   -0.61021922418102   -0.39179232324536
H         1.39582798787825   -0.41031573212583   -2.02998300648003
H         1.00317139331451    1.00532513712872   -0.89773297716816
H         2.37727608113051   -2.28664589335114   -1.76206060593147
H         2.50321516297502   -2.95354902097753   -0.13975791563099
H         3.96318000551985   -3.94924140564970   -1.89342368212290
H         5.44988238728512   -1.98322837394238    0.25550832279872
H         6.96364250072779   -1.48468865774622    1.60469620465680
H         8.45267104991464   -0.55695224724384    1.40526585744102
H         7.45737887203564   -0.35127632603295   -1.15820810495804
H         5.48695723654965    4.51637802984247    2.12760798538346
H         2.69714457200307    2.90396394551195    1.06320897055032
