28
 energy: -47.950121059772 gnorm: 0.116551381879 xtb: 6.4.1 (79825abcba525fcdf90b791dcacef51065a7a4e7)
C         0.99591890498732    0.08524590366142   -0.02225305532375
C         2.50692876511277    0.03536654947574   -0.08299247958152
C         3.33090191674089   -1.11282861772502   -0.00028341274430
C         2.77521025295725   -2.52683515977598    0.04474879180367
O         3.83366093338306   -3.48399477725946    0.07006357603925
C         4.74325553578191   -1.08183676104639   -0.12942639687003
C         5.39028771818717    0.16138500282651   -0.14724687744078
O         6.73794922004589    0.38642792217113   -0.29416015705320
C         7.59005663736215   -0.75261844879326   -0.34874992810902
C         7.97060590281500   -1.32273871547012    0.99900641783255
O         8.89896576789595   -2.12710450086447    1.04548086464446
C         4.62176783753994    1.30530618183615    0.08163625458007
C         5.27311398892152    2.56465244667614    0.34676714632465
C         5.83923968301343    3.57792541467134    0.06614047776642
C         3.21821445035591    1.25750936282960    0.01000283145523
O         2.49671448059163    2.42548641077360    0.13223397926683
H         0.67897811410809   -0.10035047126774    1.00372731857101
H         0.55522280221157   -0.58820054117114   -0.77050334257335
H         0.61053828448144    1.05215136136613   -0.36648036189998
H         2.12510475917730   -2.66177141964766   -0.81120886053869
H         2.23136514491384   -2.73390082113249    0.97614528944897
H         3.98275199624871   -3.83754022695789   -0.82345079875623
H         5.14897473170780   -2.06198028052756   -0.34862024793663
H         8.50297848006474   -0.37422935248919   -0.81385011816602
H         7.18995415914386   -1.49876577675728   -1.04398409952527
H         7.44085477874502   -0.93959342626205    1.88756910510763
H         6.42190754257398    4.45815254936909    0.23076319055086
H         3.04149316390860    3.22347468752110    0.02713138176288
