28
 energy: -47.960623102177 gnorm: 0.111907328209 xtb: 6.4.1 (79825abcba525fcdf90b791dcacef51065a7a4e7)
C         1.19093050094934   -0.17913680198321    0.19374199656855
C         2.69319332912262   -0.03572768807602    0.08434245718569
C         3.55106493697371   -1.14615456873676   -0.10309595164200
C         3.07641164688789   -2.57120873401673   -0.33582007638701
O         2.88559323603231   -3.22947333389542    0.91613410353906
C         4.94134048518811   -0.97998189883603   -0.33091542359659
C         5.58767180698469    0.25442099717536   -0.17901445450846
O         6.94028794155398    0.49598095971352   -0.15670432985674
C         7.82245328254521   -0.61451035490369   -0.27953382127769
C         7.74170239835348   -1.61362753590284    0.85252014620799
O         8.39623502130449   -2.65404061876316    0.86451568053239
C         4.73536346835168    1.35841489461791   -0.09942832476477
C         5.34574966475727    2.66477829618064   -0.13606948209865
C         5.50373934775745    3.84775097168136   -0.17590218811140
C         3.33790862258723    1.22163216831686   -0.02334646859458
O         2.54373096779287    2.33928683673735    0.11737649199411
H         0.91468930790849   -0.05304450783829    1.24031963163552
H         0.76189536097594   -1.11312885613460   -0.19511447147668
H         0.73203401748666    0.67723802405970   -0.31414874471776
H         3.87109615085394   -3.06569763075319   -0.88122426078138
H         2.19530134823933   -2.57881139359104   -0.99135800007806
H         2.53519120171065   -2.58393417375714    1.55338450606050
H         5.52239224428888   -1.88847445463761   -0.43267726243034
H         8.81965764719128   -0.17306728756373   -0.33981864609586
H         7.60881724423626   -1.10344214316753   -1.23633773650421
H         7.13619976163947   -1.28566272060035    1.71437039597348
H         5.82282697353349    4.86060131164793   -0.29303269005367
H         2.99611912031757    3.19268489008985    0.22541529106640
