28
 energy: -47.951572894777 gnorm: 0.121553083502 xtb: 6.4.1 (79825abcba525fcdf90b791dcacef51065a7a4e7)
C         1.30902625179115    0.06092668143460   -1.08806662299008
C         2.64944209701646    0.01027336986056   -0.38803258823086
C         3.48069856476337   -1.13393777859751   -0.32543668699454
C         2.95582875722974   -2.55033383948388   -0.49446192207075
O         2.66839639430904   -3.08218948046499    0.79845162281770
C         4.87717479651591   -1.12131398925547   -0.07628624536985
C         5.44833029830454    0.07204016719358    0.38659152907179
O         6.71938219096595    0.20803892494957    0.89092354639521
C         7.61982477833539   -0.89454748278420    0.89062536013725
C         8.17013062438536   -1.20655521491197   -0.48273427245903
O         8.93752595878493   -2.11017459165083   -0.80768450255189
C         4.64913294627542    1.21678969228014    0.43556170697633
C         5.16575193558893    2.44509946529873    0.98770219876122
C         5.41556714054480    3.51458894516704    1.45648395595746
C         3.33357223311925    1.20745153596369   -0.06101740888855
O         2.68688293718405    2.40926922072919   -0.25363170122296
H         1.01081976541981   -0.96789377877633   -1.28840275069225
H         1.49490932948712    0.53726636761530   -2.06077914625252
H         0.70207783566704    0.67940554187325   -0.41649059987524
H         3.62844917898118   -3.20998356093644   -1.02920715621828
H         2.05381646137559   -2.51487291548225   -1.11996929391290
H         2.36747123126787   -2.38856081234760    1.40993652496308
H         5.49770234170251   -2.00914506243365   -0.08235971662726
H         7.26227318326432   -1.82630801625834    1.33436170963501
H         8.49261858967994   -0.59440538549279    1.48080674475128
H         8.00370169591782   -0.43265396518239   -1.25108216428373
H         5.53907536799134    4.46199763569490    1.93456842643397
H         3.23834395956870    3.01780232773906    0.26617005580777
