28
 energy: -47.955955356633 gnorm: 0.116814544313 xtb: 6.4.1 (79825abcba525fcdf90b791dcacef51065a7a4e7)
C         1.24042538807196   -0.18777095581016   -0.26284797006888
C         2.73560052867952   -0.08829086838241   -0.05336515296435
C         3.62131593113469   -1.18602757733559    0.06749448173165
C         3.14824891557204   -2.62994441789715    0.02815758553608
O         2.93050595795034   -3.14612394317171    1.34088753438465
C         5.02056103138983   -0.96609181262044   -0.01075238979981
C         5.56839279586976    0.32271880066273    0.04769546325687
O         6.91592131352625    0.57858545114786    0.13206678903549
C         7.73113251447954   -0.46902213059852   -0.38217322319085
C         7.95182717216611   -1.61987699468315    0.57340460390914
O         7.88030609082663   -2.81704997765749    0.30381637266193
C         4.70535749878514    1.42121690864150    0.04153365767715
C         5.32729017908100    2.72134215244246    0.09961393529997
C         5.49369074847045    3.88535802496492   -0.10859183800511
C         3.32248540540109    1.20113564977989   -0.08733458388391
O         2.49709773995770    2.30303432488603   -0.15235435438703
H         0.77154216772576   -0.85816109794831    0.45705396035574
H         1.07493566555246   -0.57604460271629   -1.27748011662046
H         0.77799528644634    0.80616668211613   -0.27562306111735
H         3.81334673773275   -3.29474339337320   -0.50961156476873
H         2.23879610056230   -2.73730238304318   -0.57807089592288
H         2.25303333976216   -2.61271642700363    1.79044035835401
H         5.65258339723912   -1.84020035201991   -0.10983482251276
H         8.72090252607583   -0.03542282483055   -0.54113785252145
H         7.41208067646144   -0.90096431244750   -1.33705555064617
H         8.21217047651926   -1.33784165440254    1.60764715155106
H         6.01706141996312    4.78126225162321    0.14604721227515
H         3.12245102335232    3.02963338249317   -0.31236294517145
