28
 energy: -47.949882055093 gnorm: 0.117467936499 xtb: 6.4.1 (79825abcba525fcdf90b791dcacef51065a7a4e7)
C         1.12589450461832    0.01324987957904   -0.27750054120308
C         2.63598160204855   -0.01369126163579   -0.18673067934274
C         3.50972519034728   -1.11603456907051   -0.34653075207748
C         3.10966273741586   -2.51877978598946   -0.77372100475077
O         4.16184525732995   -3.13065664375261   -1.51912818825427
C         4.87630864543969   -1.00321947484940    0.01692978833167
C         5.43842299240468    0.20661647929082    0.44692164548760
O         6.72890740453892    0.38321991761537    0.88496337578623
C         7.39157436380148   -0.80879308955381    1.29297222809494
C         7.83708291604786   -1.55869805233939    0.05787437365087
O         8.72269368127117   -2.40742822042275   -0.02191851260878
C         4.59538472811302    1.31761063760837    0.36602403687077
C         4.94393352236985    2.60476035756381    0.91580450071789
C         5.47893307429853    3.65997408297270    1.07788846366619
C         3.22165369971562    1.25026980088717    0.07326768566443
O         2.38429545129517    2.33791426599071   -0.05136670552954
H         0.83141664606194    0.51640204081851   -1.19818175695959
H         0.76489509188335    0.63686273902414    0.55220307509221
H         0.63210714215230   -0.95436517349054   -0.12981176477391
H         2.16934485634695   -2.53772239058699   -1.31126347410337
H         2.99848812034033   -3.05820109142026    0.17644108095306
H         4.11028036157054   -2.94489787682231   -2.47224161770856
H         5.48318468645130   -1.89065482741092   -0.11534000516567
H         6.81361832446861   -1.39776896500727    2.00851189777294
H         8.30618074913512   -0.45804870594714    1.78352489715666
H         7.30795326379160   -1.11999103068086   -0.80499188311919
H         5.86826425513101    4.49039221655400    1.62582024524860
H         2.79566436199190    3.19872621346616    0.13408967709758
