28
 energy: -47.946433089963 gnorm: 0.114717288667 xtb: 6.4.1 (79825abcba525fcdf90b791dcacef51065a7a4e7)
C         1.15169322184791    0.01361674983736   -1.05356881462196
C         2.60263946376157   -0.00806875164788   -0.62506820031132
C         3.27598416013918   -1.20885066107142   -0.29513725625832
C         2.55902658512146   -2.54891977351359   -0.31568588698111
O         2.73257937817115   -3.17781948210217    0.95375406948902
C         4.61668674601726   -1.26301126405272    0.16525862272224
C         5.29732282571281   -0.06939111710054    0.44197879514068
O         6.57426073008944   -0.12995509402205    0.94614240144646
C         7.47611619003181   -1.06131979040897    0.35817109248257
C         8.86904781427329   -0.50697888065738    0.16132171852243
O         9.72306328681490   -1.05262398472698   -0.53433999724147
C         4.55989773722355    1.10825941147358    0.29737789156033
C         5.28632802548933    2.31182092727398    0.62023685749796
C         5.93373329386814    3.27839379420060    0.88963439053704
C         3.28455953116308    1.18802729685881   -0.28958678397571
O         2.53784623150945    2.34309022363003   -0.20058157117255
H         0.64999003416520   -0.93491796524583   -0.86354510051195
H         1.02272288636262    0.10549384920959   -2.14101854355578
H         0.61295006206287    0.80904834983374   -0.52540103277155
H         3.05365488467095   -3.20508846807899   -1.02158527258285
H         1.48436394212797   -2.50252166078315   -0.53724974845713
H         2.44027193867463   -2.58836007383351    1.66977392610770
H         5.09502616557691   -2.19370376081299    0.44514826378336
H         7.15786653898471   -1.47047611716375   -0.60319826601425
H         7.41371875722315   -1.87472961581055    1.08936149137751
H         9.11136862884535    0.35173466941656    0.81006810762615
H         6.46624765631966    4.02580360483699    1.43663466547241
H         3.04567931647403    3.16120745622983   -0.06865200267344
