28
 energy: -47.957298834062 gnorm: 0.108870298948 xtb: 6.4.1 (79825abcba525fcdf90b791dcacef51065a7a4e7)
C         1.35472606038885   -0.22009161614719   -0.70441320456008
C         2.80691320383690   -0.07969997143372   -0.30345096967771
C         3.69515140436686   -1.18073426658970   -0.24977533992610
C         3.11929712460281   -2.55009080014626   -0.57147419650849
O         2.44709794993948   -2.56068731342541   -1.83050127998869
C         5.06069429377111   -1.02148033468798    0.09995590926264
C         5.63546869480734    0.24227625582540    0.29262721130993
O         6.97000602055679    0.47652213848925    0.52188325844301
C         7.68871612341189   -0.45842436814686    1.31926932887724
C         7.77588412158701   -1.77025765798060    0.57241111494975
O         7.98634902163810   -2.85655478388244    1.10783553564359
C         4.76181488844437    1.33128384384163    0.24407371740083
C         5.25672072245986    2.67586767140601    0.41039188837395
C         5.52258123335473    3.80955098795601    0.67506535043633
C         3.37470198043256    1.15666640302261    0.09306207879859
O         2.56152538023461    2.25467184506157    0.27417229306665
H         0.92819376528668   -1.00561662742640   -0.08107231305285
H         1.27887691290925   -0.59010466062254   -1.73638167181977
H         0.86245525028705    0.75373847567333   -0.59838854454275
H         2.32286678087176   -2.82099915499839    0.11103281439713
H         3.76838691393265   -3.41974648136861   -0.40258203482020
H         3.11884122682288   -2.38208425966019   -2.51053979903604
H         5.51918896206671   -1.96383995527093    0.37395648220460
H         7.34455445553580   -0.54935357591518    2.35184252629495
H         8.67819186211261    0.00905804392195    1.36992839211554
H         7.74268023980218   -1.62213044751393   -0.52026269183671
H         5.84806880655989    4.82686669480715    0.65206836417845
H         3.13044068758830    3.01681497670371    0.47439437755398
