28
 energy: -47.956658503589 gnorm: 0.109590018077 xtb: 6.4.1 (79825abcba525fcdf90b791dcacef51065a7a4e7)
C         1.12066422410503    0.15194076208206   -0.59243802209044
C         2.57812885341297   -0.07854360600920   -0.25777124718182
C         3.35010669100142   -1.24389730293063   -0.48165890141296
C         2.67004752642946   -2.55121412666833   -0.85405370328978
O         2.12514846502661   -3.12014056837458    0.33612314755106
C         4.74872219168365   -1.29159030965769   -0.24932032139526
C         5.37531602264702   -0.16137785095444    0.29342136795670
O         6.72676251745872   -0.00936246896954    0.49065994189640
C         7.60612985832456   -1.00162022057695   -0.02763665769842
C         8.98550645294221   -0.39377593730143   -0.14658021874493
O         9.92844900426258   -0.98987947987896   -0.66285160294687
C         4.66687118179993    1.01225064436353    0.56224848103360
C         5.18131581536341    2.17395728571897    1.24509809047821
C         5.56337406639233    3.13249763887147    1.84610025204763
C         3.30133401093478    1.03928809036861    0.22765137750921
O         2.64187768772713    2.22879323329854    0.45096266804175
H         1.04903087192026    1.15146153551153   -1.02064369286035
H         0.48431214439622    0.02233033067374    0.29406004925528
H         0.74806741744291   -0.58131746287197   -1.31729719786417
H         3.30571827140624   -3.32416288417764   -1.26876007023683
H         1.76458432151629   -2.41682807220090   -1.46086495911768
H         1.66793388714061   -2.32541621422384    0.66009614105767
H         5.27038745151837   -2.22570781078996   -0.41851010142215
H         7.26278266556981   -1.22813472403076   -1.03943044645799
H         7.64724893554907   -1.98709895161507    0.44913296448439
H         9.06028765196298    0.65866634483261    0.17552726561427
H         5.82281014591412    3.91482525773808    2.52584923865301
H         3.34864996466683    2.85620032742914    0.67778628691878
