28
 energy: -47.954307798329 gnorm: 0.109336803580 xtb: 6.4.1 (79825abcba525fcdf90b791dcacef51065a7a4e7)
C         1.05416107460623    0.10338636168077    0.31363725733105
C         2.55055890511545    0.01463838396312    0.10810049112114
C         3.17615426562437   -1.17606604749687   -0.33346275522601
C         2.35218965675461   -2.43174646991402   -0.56709627564776
O         2.93571998417174   -3.66628185182474   -0.15173142754233
C         4.58748230190328   -1.23960468835328   -0.46190403707650
C         5.41592737879555   -0.12348205569201   -0.28157768695969
O         6.77874409809505   -0.04559851285812   -0.43995727054240
C         7.62189922685967   -1.07240204647714    0.07117642783498
C         8.57096325741595   -0.52957671943961    1.11564766245984
O         9.56302474882489   -1.12752201094870    1.52709833407036
C         4.78584379168613    1.09071163470772    0.00178483073388
C         5.48004806848591    2.35454297398183   -0.03440892488469
C         5.72460179359342    3.50946071230053    0.14539716975880
C         3.38516460016280    1.15990396803184    0.10516872088406
O         2.71210151047161    2.36041518336156    0.17887049044639
H         0.67688746488837   -0.39014242584432    1.20897359785643
H         0.62674536588520   -0.37433070498030   -0.57895665060434
H         0.64623070486616    1.11895063010859    0.37797119175828
H         2.16371545772386   -2.57167652048193   -1.62464320439650
H         1.38926978137895   -2.38759222853489   -0.04080848290299
H         3.07181491685800   -3.74107380447756    0.80820336194635
H         5.00582370040119   -2.19593465668604   -0.75131516001204
H         8.18518876891693   -1.36534195754915   -0.81753831044517
H         7.03965234017553   -1.91190212760138    0.46664647346588
H         8.31776984886714    0.46711726024537    1.51499015228124
H         6.10410157737043    4.48213446143424   -0.08107131522561
H         3.26404298000147    3.12022100197926   -0.07147206151846
