28
 energy: -47.956692892307 gnorm: 0.104322349527 xtb: 6.4.1 (79825abcba525fcdf90b791dcacef51065a7a4e7)
C         1.02620126344732    0.21833044001827   -0.28586020619924
C         2.49956748272580   -0.05477778095102   -0.07626076921834
C         3.26564359224926   -1.23175196251357   -0.25510112065761
C         2.59021247783475   -2.52488077465322   -0.68153553283065
O         2.94383074680006   -3.71830861853431    0.01688934476730
C         4.67711126814585   -1.09230667429270   -0.22873516789725
C         5.34256879218803    0.09967020729941    0.08895331094911
O         6.70303110887810    0.21720932606721    0.24305132260620
C         7.40982604657146   -1.01257430859596    0.12235806297385
C         8.89449055407493   -0.75722329419486    0.25223952635964
O         9.76247392544163   -1.62743857660326    0.27085297262271
C         4.58020068426818    1.24271318103664    0.34156682608800
C         5.20028903981097    2.53139698501369    0.52940631654037
C         5.73597305476727    3.59534984761907    0.61318373427472
C         3.18093146094851    1.10579808907966    0.36760329182849
O         2.39712760371164    2.20594682653063    0.64145968725385
H         0.45404059854479    0.26546728050957    0.64039218843500
H         0.48920813339480   -0.54864437003015   -0.86119461330419
H         0.97491141234245    1.20443522656608   -0.76218313739237
H         2.81343990312400   -2.66461339142200   -1.73232226811292
H         1.49802139280976   -2.42579171232825   -0.62285745066891
H         3.88845120370196   -3.63777403421924    0.23321511995475
H         5.19262086226192   -2.02040032637794   -0.44374066909686
H         7.33174337995582   -1.49696299183667   -0.85344595731237
H         7.08538988436496   -1.74832580728547    0.86638715656687
H         9.14062880758623    0.31810536154301    0.24421086060872
H         6.33055768487659    4.48296543798783    0.61633780020503
H         2.93145654243730    2.91514924861028    1.03660544933745
