28
 energy: -47.953325723526 gnorm: 0.114632984562 xtb: 6.4.1 (79825abcba525fcdf90b791dcacef51065a7a4e7)
C         1.08893253223689    0.15807983440536   -0.79907713876208
C         2.51480700627200    0.01814998290720   -0.31263120214221
C         3.18962874421120   -1.20164493429958   -0.06597217420070
C         2.55466532635192   -2.53775321928510   -0.41507350353297
O         2.63177022414024   -3.55690668622930    0.58116655605380
C         4.54097167990524   -1.30285637057432    0.35356288879804
C         5.32410724200021   -0.14398844481353    0.44462550381020
O         6.67880380050100   -0.05220066255609    0.65626574760326
C         7.51971309453192   -1.11681174193568    0.22502505086157
C         8.89971516562982   -0.50034272979012    0.18187096695973
O         9.94178354925790   -1.08612790203868   -0.10442511521252
C         4.61871414166183    1.06136084379701    0.47808640977986
C         5.28329340639121    2.33414199945051    0.61542448390668
C         5.62725784140660    3.47582049230409    0.55038282805713
C         3.30680810119512    1.15606537239838   -0.01921792391390
O         2.73764681722550    2.39546545071117   -0.21825543751242
H         0.42501625906266   -0.53722041821767   -0.28594368009447
H         1.07510653620249    0.07653645945399   -1.89487875491897
H         0.73810677242692    1.18094324812082   -0.61855414571580
H         2.97701001403693   -2.98469443065549   -1.30691259620984
H         1.51097069231544   -2.33219008110204   -0.68818233840866
H         2.20026571911864   -3.24944956909099    1.39655876269272
H         4.96455689348486   -2.29801350207220    0.41333898632948
H         7.26207985341562   -1.69135225635694   -0.66741603573976
H         7.60323121574154   -1.85642293048456    1.02887105312953
H         8.97406533370335    0.52823485064435    0.57363675190332
H         6.03710402584789    4.46159630995471    0.59130247654861
H         3.43184801107344    3.01494972123122   -0.49921736490518
