28
 energy: -47.952496726246 gnorm: 0.117112096959 xtb: 6.4.1 (79825abcba525fcdf90b791dcacef51065a7a4e7)
C         1.66723799127398    0.36314718314094   -1.29387870379245
C         2.95685601117790    0.06559499427527   -0.56061469807042
C         3.78587011263183   -1.05582719757765   -0.80407432228660
C         3.33732140125000   -2.21419562059534   -1.67998657733024
O         3.50942281046869   -3.48851250875672   -1.06062336679843
C         4.96626894788120   -1.14766422315537   -0.02266168509431
C         5.30789284304346   -0.16471257625230    0.91630996081449
O         6.51256544193591   -0.30701102430308    1.56201456809962
C         7.62203925650259   -0.87740376839075    0.87629326676668
C         7.62468943533866   -0.47669184923942   -0.58169334729199
O         7.98335002520987   -1.11831057266803   -1.56693657870633
C         4.54754629742389    0.99085572776096    1.11150467782182
C         4.85785685543069    2.04591453522318    2.04480926795827
C         5.02167883378710    2.89630519430554    2.86698309401402
C         3.33031771230726    1.02973159681213    0.40849597082839
O         2.47773907919675    2.07444680260687    0.69372020820534
H         1.46097317137109    1.43312971352193   -1.28267969557627
H         0.84571445145768    0.01871355408870   -0.65038339164146
H         1.60545685985230   -0.00319720643887   -2.32532996629106
H         3.78648717588914   -2.19950970844342   -2.66565532467041
H         2.24364311900011   -2.13284580608155   -1.73823734983499
H         4.41815433973639   -3.56783034370970   -0.72371661908971
H         5.57347238636879   -2.03432781209692   -0.15855502158978
H         7.59961771656797   -1.94775344033301    1.09256078553270
H         8.49134920708527   -0.41445896330034    1.35603351004645
H         7.46909488465433    0.61502274769683   -0.55120086409081
H         5.21969709126397    3.81002559981750    3.38399959142609
H         2.84080575562271    2.72969289444597    1.31295425759411
