28
 energy: -47.952185132380 gnorm: 0.116486486290 xtb: 6.4.1 (79825abcba525fcdf90b791dcacef51065a7a4e7)
C         1.17465236485527    0.08107410436955    0.53798661445619
C         2.64623366105796    0.00432236548521    0.19464177868511
C         3.41260131231861   -1.17426417767317    0.02809129403461
C         2.85487180736335   -2.58316331300118    0.14715701220982
O         3.65473162252732   -3.57356489091916   -0.49816631880883
C         4.77367631599014   -1.17445073995550   -0.37172859954848
C         5.46947875150486    0.04225016095348   -0.37988144991383
O         6.75647301504415    0.15137211922483   -0.84909091433113
C         7.61882676237212   -0.86175655177480   -0.34272143855325
C         7.70207596271051   -0.81946202451658    1.16644481386687
O         7.73844611327038   -1.81043693656944    1.89284839771862
C         4.75523716685257    1.22151864927643   -0.15460217549411
C         5.44589809416322    2.48496947730274   -0.23932931574575
C         5.86899069410060    3.58401500919038   -0.04168495504437
C         3.36022043183106    1.21622749194612    0.02225455085153
O         2.75987603406050    2.44012423806565    0.22556811637421
H         0.64042392617039    0.42261532080641   -0.34828804817325
H         1.00909855909594    0.85682672059853    1.29852686808984
H         0.75285626123187   -0.85895214796964    0.91262712735330
H         1.89294494455384   -2.69887406447003   -0.33742134063184
H         2.81336105477381   -3.01072055653766    1.15790662648947
H         3.38955601153668   -3.59838110753444   -1.43339704892897
H         5.37523247896913   -2.05163876443341   -0.57668392514061
H         8.61211219380888   -0.55928230539717   -0.68156678605784
H         7.34204569642780   -1.84261147877181   -0.74457245157221
H         7.98365707382289    0.18583647106018    1.52290972024195
H         6.42626886787421    4.49394060263867   -0.09533869705469
H         3.43945844974335    3.08018307856137   -0.04481695493466
