28
 energy: -47.956878845629 gnorm: 0.109114437860 xtb: 6.4.1 (79825abcba525fcdf90b791dcacef51065a7a4e7)
C         1.31098107742354   -0.21595639613449   -0.28463901068791
C         2.80904472424737   -0.08913721963513   -0.11419770673199
C         3.74089453790528   -1.10354831670224   -0.44092504045679
C         3.17250119132092   -2.36008674046578   -1.07988969315864
O         2.47610005682119   -3.15914542489486   -0.12404247971895
C         5.13770665400687   -0.92452860625629   -0.26990162651687
C         5.61793861453242    0.32294663013951    0.15170408833565
O         6.94992501616186    0.48055563930229    0.45068733490977
C         7.62723536440560   -0.64110779836237    1.00711842426746
C         8.06633454240603   -1.61447932873158   -0.06341499838603
O         8.38459015102176   -2.77270429245451    0.19782154541673
C         4.72418829234798    1.38326201016630    0.32054604218644
C         5.19669064396129    2.72538907388325    0.55705326163358
C         5.50642187965430    3.87715714327424    0.61594802947189
C         3.33573943675731    1.16257583629093    0.29079071573353
O         2.44182961892951    2.17507808679737    0.56544955322229
H         1.10556095706417   -0.46845254460977   -1.32463010567832
H         0.78248991780154    0.74091478084116   -0.17187240999447
H         0.72014792494331   -0.93309102201107    0.29721228871845
H         3.97989115308138   -3.01986395483264   -1.37369903360834
H         2.49274473715182   -2.09039637288491   -1.89924394996394
H         1.55073446691845   -2.86478089467863   -0.07267598824325
H         5.88821987911679   -1.70318850021161   -0.33117152015621
H         6.98610802570123   -1.19276140011794    1.69817328782238
H         8.49884105157791   -0.15427184165053    1.45818678007677
H         7.99896950477095   -1.25197027854318   -1.10314061446173
H         5.89206611739710    4.81024986584098    0.96525987374674
H         2.91760966360899    2.97636132247624    0.84148250004449
