28
 energy: -47.948759753600 gnorm: 0.121730628944 xtb: 6.4.1 (79825abcba525fcdf90b791dcacef51065a7a4e7)
C         1.58428333586927    0.24377250801336   -1.33748651795858
C         2.87888341824288    0.07907185097111   -0.57184146471280
C         3.73319024579253   -1.04962012126766   -0.59025244097607
C         3.36319639312620   -2.29219676763251   -1.38356413576311
O         3.36950782510515   -3.56697146574213   -0.74167408199965
C         4.99261602232845   -1.02683426630074    0.06221109449337
C         5.44807643678378    0.09973969975781    0.76074920289605
O         6.70497043226959    0.25140176682132    1.29519794265401
C         7.73471470131035   -0.60444538259827    0.81182838822954
C         7.68419751435892   -0.71875452956906   -0.69505032768672
O         8.19833155397683   -1.61335629413381   -1.36315967665952
C         4.47583460068580    1.08400127227055    0.95450404605345
C         4.90247861669170    2.08720676032716    1.89898954329568
C         4.94706028883238    2.69337098535657    2.92687530929751
C         3.21660893289674    1.11904625911416    0.32960360681869
O         2.33813526306497    2.15684122650356    0.55529955388507
H         1.86381022227115    0.87591130908987   -2.17998189878882
H         0.91162760213814    0.81972309764859   -0.68676626567631
H         1.05142299119712   -0.59672724385999   -1.79741786019010
H         3.93959395874155   -2.30864391711350   -2.30062672101856
H         2.29176354327577   -2.20086416758516   -1.60679749201197
H         4.30597535654512   -3.77930709515294   -0.58827065822901
H         5.60303209594807   -1.91327081678381   -0.06009095889728
H         7.79040986655913   -1.60519733338337    1.24578272306241
H         8.63850854979130   -0.03190693439933    1.04746537112475
H         6.89937297198374   -0.06491256689134   -1.11160925733029
H         5.30018971638250    3.42612317354047    3.61953404386097
H         2.64078595232612    2.63792480778676    1.34370098148521
