28
 energy: -47.948234690837 gnorm: 0.121628406368 xtb: 6.4.1 (79825abcba525fcdf90b791dcacef51065a7a4e7)
C         1.39975481535615   -0.03701382074656   -0.93748883803296
C         2.77129262573829   -0.06430838579864   -0.29915735276258
C         3.44232953536807   -1.21301167349400    0.18490351711371
C         3.07528653109942   -2.66060768835744   -0.09790532988009
O         2.85165871885144   -2.81442457092033   -1.49913485657767
C         4.69158738819277   -1.05176735058752    0.83738819279025
C         5.32561849360645    0.19817374233330    0.85223437519354
O         6.63102360464230    0.37783569443932    1.24218109470681
C         7.47392611079840   -0.76931259942966    1.24992001580885
C         7.85658092814902   -1.28689220024235   -0.11828635742867
O         8.37316173783390   -2.39560372283686   -0.24043076881101
C         4.62968009458911    1.33969418916229    0.44705936589264
C         5.31770114921187    2.59607318094033    0.61628720065064
C         5.98361889460857    3.52276738658005    0.96808704187320
C         3.33219791758739    1.21872787548960   -0.08141499357357
O         2.68023705054475    2.24416250631703   -0.73187936618835
H         0.72082116328635   -0.25761267453961   -0.11413080271156
H         1.19506560566322   -0.73923437316600   -1.75761705028077
H         1.13152415390661    0.91590563519429   -1.40856595508794
H         2.04802008868578   -2.90907784077425    0.13978078870596
H         3.80644204547610   -3.36019313503204    0.32886737592693
H         3.61194600142634   -2.42845546978484   -1.96666193541375
H         5.23747790904641   -1.95427126907195    1.08401656929578
H         7.00046620997438   -1.50634565147119    1.90225489024564
H         8.42366973684086   -0.40115108182358    1.65317245090079
H         7.63909602526146   -0.56460212639379   -0.92325690502987
H         6.49039282838450    4.45768325597919    1.07062859071881
H         3.21480549137861    3.03531277791100   -0.55040348293230
