28
 energy: -47.952526083585 gnorm: 0.119732781452 xtb: 6.4.1 (79825abcba525fcdf90b791dcacef51065a7a4e7)
C         1.33258351373257   -0.23342764955285   -0.57186977909693
C         2.78261553055617   -0.00475466249187   -0.20520391985341
C         3.60819330311265   -1.15337502939320   -0.26192522047307
C         2.90112306052472   -2.48102331594382   -0.48018501094897
O         2.78860713648486   -2.65540828960155   -1.89229098066697
C         4.99083270763049   -1.04787814331415    0.03734027995933
C         5.59231053867735    0.19865117307156    0.25860403350923
O         6.90996074771676    0.49814249446938    0.50864848675890
C         7.69711798037618   -0.46694641824489    1.19819950873446
C         7.84939491053375   -1.78443843845310    0.47202560093612
O         8.08243639499375   -2.84088626104536    1.05565724400693
C         4.78966866938105    1.34199704659308    0.24900236109383
C         5.27504986378699    2.65380962873332    0.60121257027353
C         5.57189230465459    3.78962240816717    0.81981176286764
C         3.40382238168900    1.24695996870483    0.03042512165664
O         2.52540146737215    2.30889864025545    0.01209477867869
H         0.84226376633267   -0.74899521265783    0.25354517217795
H         1.18360772785309   -0.76511326644082   -1.52199518167679
H         0.83173751164184    0.72644252043482   -0.74426284338235
H         1.86123605641800   -2.53603224957698   -0.18165949062906
H         3.45265076746674   -3.34223443055203   -0.07984049490431
H         3.69408686409774   -2.91428816951297   -2.13452669292254
H         5.43942510708863   -1.96668329114514    0.39496758882316
H         7.34254313389478   -0.66038712292164    2.21298035005777
H         8.67323453165234    0.02720388668536    1.25459399491472
H         7.80258771561437   -1.80038799703994   -0.63003379573910
H         5.79428408237409    4.75393322298993    1.22236463578342
H         3.03431779736565    3.11864090726260    0.18511874660911
