28
 energy: -47.948310338125 gnorm: 0.114983346796 xtb: 6.4.1 (79825abcba525fcdf90b791dcacef51065a7a4e7)
C         1.04503398393203    0.14688956278256   -0.72847364172781
C         2.48727203121399    0.02534664467139   -0.28744672094777
C         3.22729078881555   -1.18068857959501   -0.24299506434262
C         2.72200043488246   -2.57928368565678   -0.55739766789102
O         3.73621610535201   -3.34031087675920   -1.21262083562094
C         4.62299313021131   -1.11162413196392    0.00118971986907
C         5.33554661552145    0.03878871654811    0.36641069238460
O         6.66831735029195    0.29748902754437    0.57905043306143
C         7.45119660376821   -0.79287562681772    1.05307440066743
C         8.65252431742212   -1.05874566202784    0.17419620691036
O         9.18382450133740   -2.16678479238063    0.14280145728521
C         4.55001401437349    1.17873851239745    0.55354416427038
C         5.05221944964453    2.49517182128005    0.86223855337321
C         5.54117934222792    3.57965931797193    0.96604992754645
C         3.20460941577560    1.16854045372007    0.14469155213180
O         2.53500460500703    2.34614774361781    0.39874571528936
H         0.77466484670924    1.20056669328754   -0.79326745958087
H         0.26000324331062   -0.32650370093068   -0.12246439584159
H         0.94203737129390   -0.19519782809584   -1.76495072275707
H         1.83537142894052   -2.53390811933102   -1.17815406906784
H         2.44888214411151   -3.07788572139753    0.38225414673517
H         3.73209831309862   -3.19109141418861   -2.17350951964432
H         5.23191159686417   -1.99244649859003   -0.16222871688269
H         6.93699490452415   -1.75234508776181    1.14216844240202
H         7.93416550102504   -0.43976872249569    1.97080254198788
H         9.13880249860189   -0.19901042093087   -0.31709704692948
H         5.98049455686431    4.51247431272810    1.24580087313041
H         3.18227247939552    3.03224965230746    0.63310469984396
