28
 energy: -47.957493532259 gnorm: 0.118611452954 xtb: 6.4.1 (79825abcba525fcdf90b791dcacef51065a7a4e7)
C         1.20525747714774   -0.31873913609994   -0.18826533347542
C         2.69919386847011   -0.08640999292033   -0.12906003724006
C         3.61171392070299   -0.97647031378960   -0.74487209083730
C         3.04785191135487   -2.06019748729493   -1.64921200529939
O         3.99390587077546   -3.08121515801457   -1.96483525884217
C         5.00293927096193   -0.72140608321141   -0.63617332256275
C         5.40553791924753    0.44569492791736    0.02742153536570
O         6.73856362070471    0.71685006933628    0.22219507716651
C         7.73632403542678   -0.27864035513251    0.02227834476125
C         7.52774721880542   -1.55503545153722    0.80561307502777
O         8.19043352892894   -2.57336945046200    0.61890755578707
C         4.56425053670665    1.40960940945582    0.58837641725386
C         5.16350761267488    2.42930944591584    1.41396831321806
C         5.63819744458502    3.09431893401762    2.28483205581051
C         3.19995120747265    1.08065261118090    0.49976066630349
O         2.25933528034410    1.92958481236494    1.04218931817897
H         0.69663496784150    0.63477850736981   -0.04812092535494
H         0.92398017675949   -1.12449997033871    0.50401656194430
H         0.91819543032717   -0.71931718942827   -1.16757602747499
H         2.70680932628007   -1.63669111476732   -2.58614357061690
H         2.23997396057143   -2.57382527577905   -1.11100866043736
H         4.46113874208557   -3.35402818546818   -1.15683961266155
H         5.60145824483637   -1.45143337978655   -1.16737057218825
H         8.67402499566873    0.13590770138754    0.39882794769080
H         7.80378343961552   -0.57647247155704   -1.02982128992630
H         6.67566889422308   -1.64554188288213    1.50041616219901
H         6.06961188753748    3.76502080380140    2.99577709363353
H         2.65655495861617    2.50218627739234    1.71965500060817
