28
 energy: -47.951135849552 gnorm: 0.110884542212 xtb: 6.4.1 (79825abcba525fcdf90b791dcacef51065a7a4e7)
C         1.06110445948560    0.07442888609935   -0.64750779048153
C         2.54738094910679    0.00164971469184   -0.37362200114867
C         3.39264095003480   -1.11915259124803   -0.55654936585898
C         2.92506651209625   -2.39281716995144   -1.24166856460438
O         3.77139905045960   -3.45297692863738   -0.79793921239674
C         4.74172061364353   -1.05880087507756   -0.12212689202578
C         5.33280967851586    0.06227031864969    0.47652298342599
O         6.61259720439473    0.14671500865147    0.96991160930013
C         7.51464813381404   -0.95445069669345    0.95468211371162
C         8.37174406794954   -0.89059473474375   -0.28934803335581
O         9.56513565477542   -1.13304698788095   -0.45682834539192
C         4.46768215453777    1.14000963105527    0.68047961024956
C         4.87266162497895    2.33714340367610    1.37572171018177
C         5.52422305609102    3.19486227732646    1.89123870178338
C         3.13166169454764    1.13657095926874    0.24182767504672
O         2.38477425755250    2.28239228313518    0.41190326591638
H         0.48523082217530   -0.58359649396130    0.00280395035036
H         0.80187975341151   -0.06447284602568   -1.70634230132186
H         0.66274135420155    1.07500547772050   -0.44239769921035
H         2.98985371340562   -2.21910473857258   -2.30897126863788
H         1.87751984382987   -2.63218990602739   -1.01475493119224
H         3.44550418561176   -4.29353566864924   -1.16241693479109
H         5.32077852415190   -1.96014913232846   -0.28212248637617
H         6.85596802852290   -1.80406943028566    1.14758445057030
H         8.18138741563608   -0.68058218151999    1.77968099286081
H         7.85417633796324   -0.50402656220545   -1.18359011958916
H         6.12809648689773    4.00889887576446    2.22900130008459
H         2.97805093072544    3.00630311572691    0.67380316961894
