28
 energy: -47.950054677325 gnorm: 0.116496078346 xtb: 6.4.1 (79825abcba525fcdf90b791dcacef51065a7a4e7)
C         1.57945340669745    0.07608233716202   -1.22129038517409
C         2.83024959244084    0.06650427815795   -0.36997070078001
C         3.46773888252134   -1.10469753469751    0.10544324900962
C         2.77415818452902   -2.45278604194542   -0.00336309955891
O         3.08350645622508   -3.23005252197900   -1.15976859875975
C         4.82286948510954   -1.06278236849076    0.52287028374479
C         5.45172241338632    0.18714133729206    0.60535243666536
O         6.79905295883901    0.33245641031240    0.83339472868673
C         7.57356442056511   -0.81211528483342    1.17483485390350
C         7.90470255618015   -1.68719687882154   -0.01297058856083
O         8.48374500827208   -2.77108665906793   -0.04312041837116
C         4.67033337376831    1.34263922506245    0.52905193631947
C         5.27945693600253    2.63795881802577    0.70685761648315
C         5.47338813867567    3.77829902398808    1.00348303244169
C         3.34153720588608    1.31280964060506    0.06993434917831
O         2.76364758434653    2.49347143240997   -0.34449824501375
H         1.78123698145917   -0.07829005323156   -2.28100060996321
H         1.12179424759299    1.07200201854391   -1.14183128942291
H         0.81341469585111   -0.66205357653858   -0.95623021491545
H         1.69734583283238   -2.34371034560259   -0.04903696937666
H         3.08362756110594   -3.06652104934140    0.85320048389718
H         2.63300220142540   -2.78806950707908   -1.89955735177162
H         5.25254942290300   -2.02977158916114    0.75447842676566
H         7.02425165536884   -1.40101780775697    1.91265060920692
H         8.50212068269009   -0.42501947776978    1.60854960645784
H         7.75097890741255   -1.24877845565444   -1.01353969747388
H         5.73434510913214    4.79235339526337    1.21560909968580
H         3.14121438415956    3.34615707478771   -0.07066222524240
