28
 energy: -47.947825053339 gnorm: 0.137349687994 xtb: 6.4.1 (79825abcba525fcdf90b791dcacef51065a7a4e7)
C         1.02830950898231    0.13843730510569    0.05820109433573
C         2.53451219113446    0.01920517120491   -0.02220538441810
C         3.22570400944297   -1.20724789789686   -0.17117324208025
C         2.40073794923657   -2.47980787525297   -0.06989284425035
O         3.13328721524362   -3.64996666923899   -0.43212644206001
C         4.63416527273040   -1.20963194838006   -0.34032500743980
C         5.37982514074725   -0.02617358300183   -0.25095932633657
O         6.75053776634649    0.03420592956343   -0.17401412070911
C         7.43847061653238   -1.17372028901938    0.13283498933523
C         8.70156656136806   -0.64177233016335    0.77152273740960
O         9.43806261368623   -1.36580214654933    1.43813403464900
C         4.69296833414418    1.18623115498996   -0.15161928365038
C         5.40901606236247    2.36494857460782    0.27075511054033
C         5.62432343692293    3.53920327109552    0.24354499846650
C         3.29508521349436    1.21474482978591   -0.00166008649793
O         2.68532259335466    2.44992291886820   -0.04853956808425
H         0.60775893893554   -0.19217540292447    1.00760388416714
H         0.66619965130426   -0.56952901710338   -0.70027224294137
H         0.71218607199669    1.13433095841524   -0.27373057080822
H         1.66345871959025   -2.41457885450811   -0.86088776411206
H         1.98665259432738   -2.51783901378049    0.94658641083604
H         4.00866159292091   -3.57225736171255   -0.01586759209118
H         5.11120574549664   -2.16368929107955   -0.52885166138247
H         7.61114099485276   -1.62789277762431   -0.84534448184859
H         6.84119556938954   -1.80543163408601    0.79944707820732
H         8.91447411247165    0.42544722858418    0.59071066538432
H         5.91053774016343    4.50265537637510    0.60582072155433
H         3.40913786422939    3.06786733690999    0.14856907128681
