28
 energy: -47.950032313137 gnorm: 0.124482265561 xtb: 6.4.1 (79825abcba525fcdf90b791dcacef51065a7a4e7)
C         1.33752535334620    0.07354792227816   -0.86089882333930
C         2.77487134127543   -0.03283628950703   -0.40041326883659
C         3.37121042390312   -1.23087935404861    0.06131955844501
C         2.71887489696749   -2.59412709942415   -0.10069761865552
O         2.99961160578372   -3.12477640231779   -1.39557654434950
C         4.65778383994456   -1.15824653513009    0.65447591310951
C         5.32319737321272    0.04855562568449    0.91025302900499
O         6.57635472094964    0.20234554772734    1.45280686109858
C         7.62953985327434   -0.74538593222692    1.31460469551839
C         7.92114987112126   -1.16037871010392   -0.10984137872336
O         8.67207626843512   -2.11347552887378   -0.30664643171288
C         4.65901574385549    1.21251799780210    0.51576564018461
C         5.22464279692771    2.53203967757788    0.65514915877945
C         5.84233001161162    3.53154101306756    0.86829535873935
C         3.42821146844481    1.20230451607496   -0.16423032574244
O         2.99661696578667    2.32627636862896   -0.83511519435280
H         0.62478440470488   -0.33696040005421   -0.14604466882144
H         1.27908109294934   -0.45129050760512   -1.82461587612550
H         1.20206911156100    1.13291570547084   -1.10850403231200
H         1.64681606984272   -2.53000482101457    0.04102977165729
H         3.17485783574829   -3.22779775141422    0.67175574018312
H         2.80133461325076   -2.53359185131484   -2.14175181064419
H         5.15897132332336   -2.05626440061347    0.99463815149013
H         7.34197708422117   -1.61447770593237    1.91034786612071
H         8.55407051905663   -0.25471292968446    1.63810343347172
H         7.43580039300875   -0.55384524318315   -0.89312501321314
H         6.08486709608098    4.47278700926273    1.31172969334152
H         3.61565757398362    3.06949763520265   -0.74010711291210
