28
 energy: -47.949420839129 gnorm: 0.115800072227 xtb: 6.4.1 (79825abcba525fcdf90b791dcacef51065a7a4e7)
C         1.08171247939784    0.01691094895062   -0.46297219538779
C         2.55561865704620   -0.16206624293195   -0.17160337887345
C         3.28331520048019   -1.36716313936767   -0.32101527574074
C         2.59592363761056   -2.69274182756671   -0.60486313935926
O         1.43358822428921   -2.91782522788476    0.19227365168043
C         4.69993263523441   -1.29269861951703   -0.32660444630474
C         5.35238158895634   -0.10461967704618    0.03025319007257
O         6.70874572429376    0.01571400865183   -0.15472112037711
C         7.72583076774093   -0.97916675992816   -0.10735029061341
C         8.99799031790409   -0.20293571785762    0.14833991528897
O        10.13662860315027   -0.54279448419242   -0.16632674140962
C         4.63567200247590    1.01337925239425    0.46381025454580
C         5.40736986733769    2.10707473164125    1.00122238038587
C         6.05285921687539    3.00583873778109    1.45015274932918
C         3.24449537658905    0.99893404055274    0.25936730048823
O         2.48002248583461    2.12367817745092    0.48343174530392
H         0.51350900466789   -0.77021266695725   -0.95806251731270
H         0.91942790967751    0.95354266142071   -1.01433996660664
H         0.63145840900709    0.16425370331130    0.52570278654489
H         3.36185876500309   -3.42354073379903   -0.37511372596916
H         2.18871405473928   -2.80844416862532   -1.61824186878694
H         1.57562996926963   -2.36124155749511    0.97689408804898
H         5.33751793096095   -2.06158517783199   -0.74569129850701
H         7.80796458474711   -1.50447790720864   -1.06140742619555
H         7.51855300758539   -1.66298957231179    0.72306567311056
H         8.81404345594100    0.74891833381995    0.67475955109188
H         6.82707131570802    3.57263505762294    1.91998232285464
H         3.13091934178966    2.73330558841149    0.86982968880684
