28
 energy: -47.949437949784 gnorm: 0.116937711108 xtb: 6.4.1 (79825abcba525fcdf90b791dcacef51065a7a4e7)
C         1.12517706254941    0.17155572774517    0.38374694689235
C         2.60455545269858   -0.02615776630497    0.13539842643446
C         3.28792844026573   -1.24692314998302   -0.08106850123481
C         2.52862751420302   -2.56019205410203   -0.17605539482313
O         3.30665823414186   -3.67715249576975   -0.60521827780293
C         4.70119170210172   -1.21875532380495   -0.20054516439826
C         5.42480429793689   -0.01835975019151   -0.19858480051946
O         6.77257111926239    0.07132606267397   -0.45137008637981
C         7.58515630288665   -1.05678798194337   -0.14549796834107
C         7.97431806606763   -0.92007486174974    1.30920635869407
O         9.11719086120709   -0.90906123164001    1.76168476143396
C         4.74155723906672    1.19556450462150   -0.09309874287114
C         5.39198426734776    2.46403197979821   -0.31317628977482
C         5.93406697662273    3.51291232415486   -0.49197245768764
C         3.36314027582411    1.16984102626145    0.18381814803825
O         2.66066111501103    2.34356606474413    0.35283179123369
H         1.08004429089592    0.58464285156819    1.39114720059736
H         0.50571913909608   -0.70942229688564    0.16518056854939
H         0.69731447046239    0.92283312476600   -0.29036929286561
H         1.52035060928724   -2.45298701768775   -0.55736000847664
H         2.34473028689995   -2.77067993159712    0.88602736794696
H         3.62139428966754   -3.62422422710963   -1.52376619723180
H         5.10401962472232   -2.17917278816306   -0.49830897966688
H         8.46155464621158   -1.07012623894647   -0.79716569018290
H         7.03408084430877   -1.98201195947957   -0.34660692522825
H         7.11384968653995   -0.62038599724158    1.93110745155787
H         6.31946879369664    4.48995291109924   -0.29637235903611
H         3.34630676354364    3.01124620395022    0.18339465214061
