28
 energy: -47.950908452622 gnorm: 0.112794310042 xtb: 6.4.1 (79825abcba525fcdf90b791dcacef51065a7a4e7)
C         0.99998621053501    0.17549806330934    0.09526302921199
C         2.50900260470051    0.09307188140804    0.02175467814403
C         3.29553737364214   -1.08207080816879    0.08904077224165
C         2.47747518402356   -2.35920695906682    0.18870588682443
O         3.29443600272518   -3.51293997496555    0.38514509514621
C         4.71156683674476   -1.08387142746303    0.00396160241812
C         5.42232994124594    0.12349522194277    0.04458369493170
O         6.78856250336174    0.26156269242809    0.09716993077723
C         7.66629376341607   -0.77064964274715   -0.33942972082540
C         8.39753773022390   -1.38354064519303    0.83357876589197
O         9.06812156565209   -2.41370398886729    0.82372816405710
C         4.69935396121587    1.31877815259847    0.05763767697151
C         5.40597988613864    2.57186634367974   -0.04699970843799
C         5.85236691745729    3.62603658353954   -0.38675762517298
C         3.29392699508376    1.27249625471517    0.05431794288409
O         2.54434420046605    2.41945870436728   -0.09493293758978
H         0.50022965893344    1.00295603937677   -0.40781737056337
H         0.70946995703683    0.23217568800025    1.15356809739589
H         0.47324594676427   -0.64012510296300   -0.41387385901975
H         1.86618467314989   -2.50169745241067   -0.69420340605267
H         1.77434552266599   -2.39205895957994    1.03171985551905
H         3.63586004150346   -3.93689122363051   -0.42063740134386
H         5.24294583415711   -2.01671535968739   -0.14016990129501
H         8.44930415811031   -0.38220145295361   -0.99435376924426
H         7.19971181981347   -1.52826027580587   -0.97856648092833
H         8.34111912243290   -0.73341915187367    1.72303882702667
H         6.27916988354104    4.53211919319409   -0.75858527536040
H         3.11695680139330    3.15230312420236   -0.37719084878416
