28
 energy: -47.951554959550 gnorm: 0.112553873179 xtb: 6.4.1 (79825abcba525fcdf90b791dcacef51065a7a4e7)
C         1.09668046662543    0.17430044858184    0.38006508757477
C         2.57693099818650    0.11160318336343    0.07305459692907
C         3.36278117444919   -1.06531270870540    0.11091189729212
C         2.59721510154668   -2.37831335011713    0.09773886672205
O         3.34109969389987   -3.58442595381464    0.26815397632251
C         4.78093402052417   -1.09292224914980    0.13239125060948
C         5.44924872226417    0.12174499217640   -0.07378227251388
O         6.81264200275030    0.28841492580404   -0.11619982449622
C         7.60888956618315   -0.86708763185744   -0.35556854782493
C         8.00845996272659   -1.62033401593312    0.89313694686998
O         9.07325461564343   -2.21214861378705    1.05740519730707
C         4.68316766694850    1.27092453197193   -0.28371596257091
C         5.31227673660923    2.56729427670712   -0.34810898979863
C         5.65947516316843    3.70593072070849   -0.44261835280533
C         3.28485004492061    1.31998694681926   -0.14343515773124
O         2.66046420991751    2.53958073963161    0.00625237607508
H         0.69782639883726    1.08787208535462    0.82033261687036
H         0.83890944091133   -0.62343079575512    1.09055831223231
H         0.49058159924389   -0.12398266359820   -0.48340939010691
H         2.11454926161577   -2.41675934022008   -0.87131430276972
H         1.73132597256139   -2.34151197942108    0.77229412767082
H         4.13001435122515   -3.45752887413928   -0.28601320327026
H         5.37551118555543   -1.92986503871862    0.47784759978232
H         8.52657756543825   -0.60038973903530   -0.88438208252924
H         7.13700520334331   -1.54137213781479   -1.07864111284382
H         7.31961584134531   -1.49628283975934    1.74582991479869
H         6.07500918032979    4.67181150435189   -0.63184853465700
H         3.31583755725831    3.21443702839200   -0.23802293960712
