28
 energy: -47.955082727643 gnorm: 0.122839610041 xtb: 6.4.1 (79825abcba525fcdf90b791dcacef51065a7a4e7)
C         1.13743415958749    0.11283160190361   -0.68970655732300
C         2.61693495496281    0.07685854333542   -0.37488697820865
C         3.41985994951956   -1.07692016593049   -0.20686660052788
C         2.76628749428123   -2.44724442699653   -0.27959969877028
O         3.50155466587038   -3.22035116107456   -1.22765106070976
C         4.75469222405837   -1.03749829863400    0.27172494888528
C         5.39688453086995    0.16834421228967    0.58493646845035
O         6.70957014962355    0.34632025195732    0.95045028502195
C         7.49909821063638   -0.79508074808731    1.26721980231865
C         7.83303935483511   -1.65085522842547    0.06620548838017
O         8.60089474357191   -2.61021888343743    0.09838792750241
C         4.63798051338437    1.33376519129198    0.45293420139959
C         5.33339379873480    2.59204626777902    0.56967448538842
C         5.78574312065200    3.66769858231337    0.82329607382517
C         3.33543785222908    1.26011452800962   -0.07179066655228
O         2.69258031477927    2.44401898271018   -0.36295639283763
H         0.90465664314766   -0.38920614950616   -1.62848551375275
H         0.88377788223863    1.18205397673477   -0.69631515010422
H         0.59800042436777   -0.32938972958877    0.15608796214047
H         1.77068603026945   -2.32291759729639   -0.68804677899457
H         2.80537048642859   -2.87768296565659    0.73002315876526
H         4.46344648041851   -3.15033392314878   -1.10334421537435
H         5.26205364794767   -1.97130842239022    0.48129205852525
H         6.94887697344988   -1.43048238253711    1.96467527596518
H         8.43124177532847   -0.30278998682144    1.56542537804462
H         7.37335507392851   -1.35695355466174   -0.89259187490318
H         6.28621536427345    4.59759334139852    0.66135305046359
H         3.26858146212231    3.21239426887583   -0.21316400424404
