28
 energy: -47.958347071478 gnorm: 0.109231405725 xtb: 6.4.1 (79825abcba525fcdf90b791dcacef51065a7a4e7)
C         1.11937922379439    0.00406818866340    0.48477164395505
C         2.61179201340899    0.00521119240871    0.23571182322371
C         3.25700767129201   -1.21206432737040   -0.08995942961099
C         2.48702250426439   -2.52254420465489   -0.09094123471252
O         3.29255327680699   -3.63035797727124   -0.49216689960031
C         4.64553944671564   -1.23615451566621   -0.37940773699335
C         5.38785072276066   -0.04809321126931   -0.42471644188298
O         6.71968398080743    0.01627929342327   -0.75712538537335
C         7.77045792951428   -0.79245048859216   -0.23912541452017
C         7.79807326958641   -0.89022223434666    1.26950976514552
O         8.79447549416149   -0.82026735907402    1.98596293914414
C         4.74772265014906    1.17302281317188   -0.19959944303428
C         5.52625180734049    2.38032624578740   -0.06994614694560
C         6.12046965323259    3.39287270755989   -0.28818120389365
C         3.37954847460443    1.19114025174035    0.12466770821327
O         2.76291720840326    2.41793955172446    0.24467775159232
H         0.81103623830292    0.99891421030085    0.80530121361744
H         0.95517215231843   -0.72486723740908    1.29056991225061
H         0.59648841946633   -0.23881536261089   -0.44770335127310
H         1.56509172045002   -2.42890131154699   -0.65199656868960
H         2.17361774701255   -2.66597433734761    0.95181874954820
H         3.08959232634533   -3.82992676214616   -1.42198925941296
H         5.13328651241309   -2.18498721617114   -0.56690343406567
H         8.63491744982204   -0.24431871632017   -0.62015570600057
H         7.71879795159311   -1.83788408246476   -0.56249552218048
H         6.82286699010512   -1.13083108903823    1.72564604558157
H         6.76262603606148    4.24666023306143   -0.27899887547146
H         3.46877308926061    3.08564350759798    0.26822701105016
