28
 energy: -47.948427757154 gnorm: 0.123336683636 xtb: 6.4.1 (79825abcba525fcdf90b791dcacef51065a7a4e7)
C         1.00654539866615    0.07701558954079   -0.41948491891203
C         2.48934209636448   -0.01537606638810   -0.13294388052457
C         3.30984184986716   -1.03836886379593   -0.66622671734195
C         2.65661092514849   -1.97182728280628   -1.67229846885286
O         3.64158417165774   -2.59935101784093   -2.49275863382029
C         4.66435972459635   -1.23821643236439   -0.29511564875467
C         5.26958818524558   -0.14740666013575    0.34394703512801
O         6.59350293254102   -0.11782611952629    0.71109016877288
C         7.52671723435182   -0.96811782575977    0.05336012727479
C         8.70866748686784   -0.96093017345695    0.99635746165230
O         9.62530461978206   -1.77989019579290    1.00621034685657
C         4.50633789076847    0.95037662091593    0.74877637552112
C         5.16939315199534    2.11217140271957    1.28830375670909
C         5.48614888455660    3.10555988964740    1.87038350668223
C         3.10283307756241    0.98039961930373    0.66722366693140
O         2.42731404251979    2.07832578794444    1.15497892824741
H         0.56774584046688    0.98363576113170   -0.00351855298213
H         0.53734485091939   -0.87459274246045   -0.13327853950878
H         0.82519618959450    0.11451125119995   -1.50005114465796
H         1.98549958959179   -1.37561902205625   -2.27864303729221
H         2.08572183317620   -2.70258680870509   -1.08389445002282
H         4.02188804107727   -1.88545864658390   -3.03249664245141
H         5.09162573897723   -2.19755466603401   -0.56053838583550
H         7.89970783829954   -0.65364052777999   -0.92383218799270
H         7.19548037438943   -2.01050027882604   -0.00900448169729
H         8.84312014395828   -0.07248602499222    1.63633378527480
H         5.76548967572397    4.09372800178437    2.16516269970245
H         2.90800097185177    2.91555627664991    1.26723238915833
