28
 energy: -47.956580047721 gnorm: 0.106097748146 xtb: 6.4.1 (79825abcba525fcdf90b791dcacef51065a7a4e7)
C         0.99358774084858    0.10298606921336   -0.47426303388519
C         2.45766372736312    0.03501529046992   -0.09851109887436
C         3.21426523682585   -1.15839486615919   -0.18483060610306
C         2.54790183435225   -2.48758855574115   -0.50017102822681
O         2.95554792430039   -3.59774836568303    0.29888033031249
C         4.62669467063471   -1.16001015912296   -0.05283953875456
C         5.33782208785989    0.01509240541414    0.22644586894161
O         6.70269840344774    0.11260963406398    0.35302544523336
C         7.47721173411346   -0.98275213753664   -0.12321548157032
C         8.94496199516740   -0.77171645698899    0.17254649057661
O         9.84796510073287   -1.60529420643256    0.19992817744888
C         4.57576189146447    1.17299853519291    0.39989216098356
C         5.22695111942161    2.43410151790360    0.65693509382871
C         5.56125051150634    3.56888735713597    0.81965185374961
C         3.18567014154765    1.21560915814446    0.19202857429278
O         2.55673204630420    2.42013866125108    0.42272015066113
H         0.34132128613671   -0.70184402240416   -0.13613554432194
H         1.06395523273820    0.18757310627068   -1.56765917386674
H         0.53880468400399    1.02090630259513   -0.08373563944694
H         2.67463471824316   -2.72589969297858   -1.54929210263104
H         1.46520314309050   -2.39382827940437   -0.34169174838856
H         3.80932378547503   -3.98176489015859    0.03584315658407
H         5.12237970943574   -2.11306289838478   -0.19184368786578
H         7.33383959709238   -1.24606477041315   -1.17346957996679
H         7.24071327133413   -1.95563049375352    0.32146930850887
H         9.12118987654299    0.31462235952815    0.24865119380163
H         5.91126433625485    4.55395803660131    1.03994337230169
H         3.24245681803166    3.08240674728302    0.61192423204114
