28
 energy: -47.944755666381 gnorm: 0.128798669127 xtb: 6.4.1 (79825abcba525fcdf90b791dcacef51065a7a4e7)
C         1.02772195044040   -0.02503767723312    0.32549979123741
C         2.51848281804480    0.06353965119392    0.08236579588184
C         3.27035768167591   -1.13464050484466    0.02603437404202
C         2.47685586294317   -2.42230131797917   -0.12403275740184
O         3.25805618681748   -3.60235136989408   -0.30929243084196
C         4.68411834163710   -1.20042463489741   -0.07058042806479
C         5.37016050705191    0.01841819657297   -0.16188701720867
O         6.69730897045167    0.26043375461434   -0.42365944375918
C         7.52944514236183   -0.88888598324205   -0.30917245035733
C         8.31122761229535   -0.78396839329285    0.98083162164949
O         9.14309300738726   -1.62629180619897    1.31175074221995
C         4.70461275421391    1.24604089611923   -0.12245755408635
C         5.49413121646190    2.45309592360786   -0.10911686368801
C         6.11254489635764    3.47049333795434   -0.01725417829646
C         3.30664523879471    1.24005658177130    0.02929561400796
O         2.53229081459345    2.37036940197740    0.17909952817499
H         0.97726621611521   -0.63214059919085    1.22905580756552
H         0.53369409850610   -0.54287221034522   -0.50841000242006
H         0.50442226137239    0.91679538950710    0.52804543356676
H         1.75813700965460   -2.32747605420624   -0.92899228042804
H         1.91062601549356   -2.49823750975901    0.81392277915240
H         3.72097619880758   -3.54976764191285   -1.16283240199716
H         5.09881198330578   -2.17800914978074   -0.28433973203077
H         8.19797801600738   -1.09451077364065   -1.14804373304781
H         7.01584679914980   -1.84866083448670   -0.18581378282575
H         8.03816989666051    0.03662478555949    1.66570134371163
H         6.75286046279306    4.17462969585993    0.46812221594303
H         3.11356499735939    3.13857641303789    0.30791713790131
