28
 energy: -47.950489201702 gnorm: 0.117681735524 xtb: 6.4.1 (79825abcba525fcdf90b791dcacef51065a7a4e7)
C         1.36979291324645   -0.21926746498210   -0.91382299008971
C         2.78435493942502   -0.02852351358858   -0.41186776518968
C         3.59548088990723   -1.14980956186549   -0.11367824465936
C         3.11084755528135   -2.52564409286916   -0.54081464385748
O         2.69421292535530   -2.65909661035664   -1.89938713794498
C         4.88326604397580   -1.05989220549063    0.47445899997711
C         5.46334083086023    0.17847228526067    0.78192478559719
O         6.72208438175212    0.38612202594062    1.29267483023142
C         7.67551305932517   -0.66484894367712    1.40637400819695
C         7.92258104015310   -1.37449376819373    0.09425219026115
O         8.21902000990555   -2.55467241380883   -0.07986998143985
C         4.58604706983138    1.25686910162961    0.64414985564235
C         5.18087212032306    2.53741289505600    0.93892091041762
C         5.85729093307176    3.51847527813689    1.01603073500498
C         3.35270120371621    1.21213363723515   -0.02981951194956
O         2.71395666568411    2.40045604604743   -0.31189806778132
H         0.80720757414384   -0.93781276962043   -0.31823623246792
H         1.53011939764160   -0.68543292528194   -1.89596699704106
H         0.87742529470333    0.75658647661542   -0.99867604590856
H         2.31839604582352   -2.86326973377261    0.11610086246277
H         3.87099285977099   -3.30720610536513   -0.40859111387427
H         1.73163183025544   -2.53288614073234   -1.84371828726362
H         5.41787012033139   -2.00021588418438    0.53212350614092
H         7.44511840833541   -1.35452222924620    2.22135366794605
H         8.54293097502477   -0.05347351194526    1.67835677526528
H         7.69045431229031   -0.65448324929002   -0.70866888347633
H         6.23181328401941    4.48088008648925    1.28973179962955
H         3.35413048214038    3.13167806200939   -0.30152933348137
