28
 energy: -47.954428216830 gnorm: 0.107555556042 xtb: 6.4.1 (79825abcba525fcdf90b791dcacef51065a7a4e7)
C         1.20064022266132   -0.10002310213274   -0.62157498349899
C         2.65640080254557   -0.05617383633486   -0.21149399973718
C         3.60614507462919   -1.07598393955038   -0.46068844718047
C         3.20318244516782   -2.23552492153523   -1.35697046585631
O         4.19705496401005   -3.21796126284612   -1.64705573208360
C         4.95872344477524   -0.86900084684766   -0.08642797295179
C         5.40206874597897    0.30152219405811    0.54435671774915
O         6.68235407906480    0.43198945574669    1.02629769443605
C         7.57760028150137   -0.67440095176044    1.05676448061437
C         8.03073650316870   -1.33528408977525   -0.22550033849522
O         8.35238674045326   -2.51567149293950   -0.34484408899653
C         4.47387488575124    1.33480428734365    0.69385662898423
C         4.85046668191478    2.58353369788122    1.30977275678352
C         5.36480774410755    3.51381600276022    1.85383141627109
C         3.11742764977397    1.14986765360424    0.37256651683335
O         2.20958400746292    2.11994032335462    0.73924346991801
H         0.58536999839951   -0.56085174747435    0.15083211040106
H         0.93872513151939   -0.65139370179686   -1.53536522469045
H         0.86418239762221    0.94144675968723   -0.68524202504473
H         2.89621805045450   -1.76371957616614   -2.28254111650373
H         2.32097073600701   -2.69229304802148   -0.88877338494195
H         3.76891606625596   -3.93090691729334   -2.15103593594345
H         5.64583105283705   -1.67318143541592   -0.31990612916536
H         7.29429126689386   -1.54830596447304    1.64748337472586
H         8.44701261405885   -0.25337434151606    1.57351119964380
H         8.06148811924229   -0.63082869555073   -1.07389714993660
H         5.79195611617394    4.38511973730780    2.30079488256734
H         2.85850719023377    2.80496314923380    0.97217715349453
