28
 energy: -47.951506206553 gnorm: 0.121883688278 xtb: 6.4.1 (79825abcba525fcdf90b791dcacef51065a7a4e7)
C         1.15519671495079    0.02338746340442    0.35855519707102
C         2.64974325648895   -0.03930448169409    0.13111641466448
C         3.34492116930666   -1.26799118149871    0.02537444056184
C         2.46485440470307   -2.50658657317444   -0.01462020855257
O         3.11974988185901   -3.61605805512252   -0.62886621714706
C         4.74157793836886   -1.24204481299809   -0.22172433175236
C         5.38085609782451   -0.00169140275288   -0.35369179652702
O         6.73757819402460    0.14512779739605   -0.51545899177794
C         7.67030781519202   -0.86107651846465   -0.13590391970902
C         8.10235239398073   -0.78427087576217    1.31107237677923
O         9.12956703331043   -1.25422240784499    1.79583197787428
C         4.71465505466747    1.20979099909804   -0.15356059329484
C         5.41178846351268    2.47241245844940   -0.13649491669521
C         5.98555679542916    3.51097440033407   -0.27121945575532
C         3.32687249375796    1.20421739318438    0.07316938143058
O         2.53840981264093    2.33021076026472    0.17385988994231
H         1.01477523346256    0.23598186267296    1.41809219024851
H         0.68850544004267   -0.88649705568375   -0.04385141493757
H         0.71310161091798    0.83166397601180   -0.23571564147142
H         1.46748078482698   -2.32984915778519   -0.39870118343265
H         2.32761042365245   -2.83314122780382    1.02493223144585
H         3.18586057800231   -3.58038010902311   -1.59837481797644
H         5.26082506309633   -2.19196330217168   -0.25877312811646
H         8.53816710081301   -0.76459026909603   -0.79197818978795
H         7.25292318379857   -1.86210141881306   -0.29052474233614
H         7.40354976045225   -0.24401736744440    1.97196665050507
H         6.57812975893778    4.31041481158740   -0.66000548554660
H         3.18566769171973    3.05443115116962    0.13954182672312
