28
 energy: -47.952423822953 gnorm: 0.116862378085 xtb: 6.4.1 (79825abcba525fcdf90b791dcacef51065a7a4e7)
C         1.50579464794664   -0.20534363666887   -0.97812410587293
C         2.85378095803506   -0.05256764959256   -0.30810885202543
C         3.48461918024977   -1.22797134169144    0.16580464282857
C         2.84273570101553   -2.54600565977943   -0.23545184306772
O         2.95478633726281   -2.84572832069497   -1.62639547796460
C         4.75691551733590   -1.12714487055097    0.78506000715761
C         5.43918950243432    0.09488763785655    0.86060689569953
O         6.69297299788248    0.33185788743849    1.37079451637208
C         7.61298859964491   -0.75366833297676    1.32958953216102
C         7.81413122157509   -1.15779291701420   -0.11350679195259
O         7.76110735564430   -2.33019039870161   -0.47914164492562
C         4.77227858140173    1.25925340853724    0.47195777589221
C         5.32756665528103    2.56440769960789    0.73411543164008
C         5.53831204994882    3.73501833137319    0.84008172113745
C         3.49351058203426    1.19624457496873   -0.10955773534423
O         2.86736898886732    2.36828743211558   -0.47552944528707
H         1.37281343574602    0.64794477718516   -1.64276542954779
H         0.74835800615593   -0.26411050222596   -0.18411034408144
H         1.45219311561401   -1.08469230582177   -1.63064967763520
H         1.80296478685311   -2.37699437117138    0.01717453276289
H         3.19429314566183   -3.30291022996379    0.47844308082594
H         3.87542547755425   -2.97764010007084   -1.91032033324710
H         5.34136789971940   -2.03717143512574    0.84507998459411
H         7.35952788343663   -1.65974263477238    1.88430550370172
H         8.57632346009352   -0.42467327533830    1.73445566072972
H         8.13956954458556   -0.39666240753763   -0.84271901213467
H         6.00105534845973    4.63820587142197    1.17403259170225
H         3.26805029732673    3.11704626657813   -0.00284523861297
