28
 energy: -47.945101123244 gnorm: 0.121873761650 xtb: 6.4.1 (79825abcba525fcdf90b791dcacef51065a7a4e7)
C         1.19819861593871    0.04488820277910   -0.23767363929524
C         2.71041101967285    0.09487896195884   -0.24420034694224
C         3.44473245931743   -1.11543880098748   -0.24945705031285
C         2.74614722804548   -2.45954720499176   -0.37430453046338
O         2.27382482436995   -2.82540143204233   -1.67052034534743
C         4.86158421976606   -1.05195768056555   -0.21975209165793
C         5.57643336633200    0.13291570483646    0.00303555245475
O         6.93340312677136    0.07755664779376    0.21276822710040
C         7.37720867700353   -0.86005992458626    1.18765567151848
C         8.55548574493532   -1.61305245622957    0.61235798101696
O         9.32909598020122   -2.28864882109664    1.28771935589882
C         4.84648577689868    1.32366286246338   -0.02635287202821
C         5.45832203595045    2.52058265479393    0.49665632290712
C         5.51794328106677    3.47236731288148    1.21535167482655
C         3.45318018939509    1.30138166775041   -0.21498234563573
O         2.66678697856550    2.42227252961796   -0.37266062569613
H         0.79797492732914   -0.22647265084709   -1.21425824514548
H         0.70548175182194    1.02383778052260   -0.15699232195535
H         0.88019608933007   -0.74280877758659    0.45538096749107
H         1.94609455403341   -2.42570866399635    0.35527008712589
H         3.36076989852297   -3.27210090601303    0.03574251686613
H         1.68178147162317   -2.09356329577770   -1.91442212715165
H         5.37515763913241   -2.00545695022318   -0.19933592741878
H         6.63049986683209   -1.60169408284814    1.47976440656393
H         7.62016789126343   -0.26426594026987    2.07431723685256
H         8.54023595986550   -1.59842770757977   -0.49060791948877
H         5.73394025389914    4.39713667750149    1.70478932103228
H         3.23853405664988    3.20795176904830   -0.39337474560517
