28
 energy: -47.944455401618 gnorm: 0.123475112101 xtb: 6.4.1 (79825abcba525fcdf90b791dcacef51065a7a4e7)
C         1.26316271716571    0.02219186203405    0.63531165957026
C         2.72916081692961    0.01546476144543    0.26096911757110
C         3.47262921886022   -1.15915102797994   -0.00671943897644
C         2.96683530351252   -2.54384924391022    0.36344132284702
O         3.47673529913867   -3.48362686343038   -0.58203910269375
C         4.80951661001987   -1.10381687359502   -0.47794272540890
C         5.43521975288525    0.15020845929179   -0.49995678364053
O         6.77718369933690    0.26088648546821   -0.77436980439540
C         7.56672447410109   -0.82327662850386   -0.29718069899483
C         7.47609400023221   -1.17966424259656    1.16947400415004
O         8.15741504606415   -2.09166173001290    1.63323951171263
C         4.77391411917034    1.31731743789046   -0.10996004004949
C         5.58506298609910    2.49922623086510   -0.27004854344945
C         5.79709926065248    3.67424217093461   -0.25134311992152
C         3.38175036952088    1.26025658914250    0.07978225903062
O         2.70268371216226    2.43962176789309    0.29804652028833
H         0.94736900494629   -0.61150030605317    1.46370876624437
H         0.68935464192258   -0.35050610455355   -0.22460820955101
H         0.99791870819481    1.08218039404499    0.72468032003221
H         1.88569523626893   -2.53345713893032    0.43079566232218
H         3.30200843080610   -2.79096301137781    1.37967795244104
H         3.07843333788306   -3.41418752078671   -1.46641695898645
H         5.20590495388757   -2.02130330819821   -0.89559120325320
H         8.58104598643613   -0.43466155254743   -0.41143033763294
H         7.41472262798331   -1.79894917487611   -0.77165609676545
H         6.84282951805825   -0.48440200579739    1.74615999675043
H         6.11865678980988    4.61657376761621   -0.63865978330005
H         3.27145580248544    3.16530832145033   -0.00935061319515
