28
 energy: -47.951502751643 gnorm: 0.117886499837 xtb: 6.4.1 (79825abcba525fcdf90b791dcacef51065a7a4e7)
C         1.40332717306400   -0.19265064603108   -0.87873338542568
C         2.74001606301859   -0.05158815636413   -0.18397283528965
C         3.44744319877443   -1.21743690185152    0.19611695587060
C         2.92408866430981   -2.61626203510359   -0.08606013242639
O         2.82188905412378   -2.73356744122418   -1.50482998733924
C         4.72942523629201   -1.09347103723871    0.79070561701978
C         5.35894770403139    0.15560809313605    0.88054638641972
O         6.65841611965840    0.35047040857750    1.28282722002414
C         7.58314632534046   -0.73177221465756    1.27193315356170
C         7.85114707582445   -1.20354814355150   -0.13941552865258
O         8.21939583638922   -2.36230986986048   -0.32019258084347
C         4.65393135646605    1.28220336535510    0.45008035916577
C         5.22803162081580    2.58108766997552    0.70268212989121
C         5.88591610155444    3.54144462468971    0.96890431713220
C         3.39403154525969    1.20549934646506   -0.16971553853485
O         2.85589166328989    2.32618787491024   -0.76480858319370
H         0.54774074177363   -0.38486600233529   -0.23177255239035
H         1.43081580132522   -1.01372619981937   -1.60859705338533
H         1.17906726264245    0.69899434065153   -1.47588792027389
H         1.88177165089590   -2.79363153887656    0.14978674914417
H         3.62628861487207   -3.35859171830954    0.31643831338124
H         3.57668700539681   -2.22631771693493   -1.84916737857832
H         5.23097612675829   -2.01431067217402    1.06243416478909
H         7.24898351525736   -1.48536845238842    1.98841812290482
H         8.53406456683493   -0.29209266937097    1.59225296109050
H         7.56003026443409   -0.43077723167999   -0.87089098024958
H         6.39711685014974    4.41254616044792    1.31712577062607
H         3.52877750010387    2.90146473889305   -1.16592806637231
