28
 energy: -47.958755117648 gnorm: 0.110699381752 xtb: 6.4.1 (79825abcba525fcdf90b791dcacef51065a7a4e7)
C         1.30953059614326    0.07477184157046   -0.79831395112124
C         2.72866443896172    0.01244633938609   -0.27725474529116
C         3.52465264654953   -1.15110522239225   -0.14812216247845
C         3.05785149924580   -2.59444063329838   -0.24359571550280
O         2.76477980773594   -3.05130335556053   -1.56363308085690
C         4.88229348819757   -1.03924259197480    0.24770512958497
C         5.50052789354937    0.19561808864899    0.48744224620131
O         6.82437356440314    0.31964937412841    0.83452757443248
C         7.50301481907940   -0.82802153416911    1.33331737028683
C         8.11989245858198   -1.59663580605242    0.18658457265337
O         8.40712879668535   -2.79167657620762    0.20630951842972
C         4.76243946289496    1.36368518331442    0.28150372934864
C         5.24336594349938    2.70340903977152    0.51463222852992
C         5.42745350083554    3.79083486376183    0.97244066718477
C         3.40820313987092    1.23966371135224   -0.07632394758754
O         2.63065236127029    2.37609974793568   -0.13633205466107
H         0.73900440762202    0.52267898940371    0.01495861448875
H         0.82240909854977   -0.85848842766586   -1.11352748568338
H         1.26583496869961    0.78170733466085   -1.63512320561391
H         2.15873631360258   -2.75999256656188    0.33751777422432
H         3.85979654677999   -3.24375167805305    0.13246602661464
H         2.98528088360027   -2.25367941989896   -2.07428541036078
H         5.42290099871299   -1.95395617099835    0.45836580507042
H         6.91598701041855   -1.38036481708403    2.07036420199565
H         8.31673828266311   -0.36684242612799    1.90369999534603
H         8.25705494727028   -1.03585012747715   -0.75346121874505
H         5.74142648893750    4.75442007065563    1.31056310180432
H         3.16575919220226    3.18239930963556   -0.04601395854112
