28
 energy: -47.954847458436 gnorm: 0.119111406476 xtb: 6.4.1 (79825abcba525fcdf90b791dcacef51065a7a4e7)
C         1.17111255288512   -0.12648154722366    0.41991971793884
C         2.62653397268420    0.00087953332246    0.02640263353933
C         3.39433473968868   -1.18069621312896   -0.10955858227575
C         2.64444914745392   -2.50273869982349   -0.09902788314060
O         3.16472414393080   -3.63313778438814   -0.79804508506125
C         4.80258642769470   -1.02472894405757   -0.17943388259310
C         5.44229190177213    0.22112367760775   -0.12289420094509
O         6.81347345874131    0.27649654177803   -0.19510460080193
C         7.62630860622386   -0.89159187632238   -0.23201258617999
C         8.03901937514636   -1.27399167620037    1.17146247456520
O         9.12770780955412   -1.75907664621777    1.47223862868819
C         4.64658519694451    1.36880600904212   -0.08765119937810
C         5.33899071634532    2.63382411594988   -0.11598817404466
C         5.88272532867666    3.69009770390375    0.00488572602185
C         3.24877497078761    1.27405773347152    0.03287816478270
O         2.42355824342123    2.36591715795325    0.19576891580032
H         0.68384032130689    0.84791053453370    0.44559176672170
H         1.22342954265484   -0.60945546587633    1.40562798955612
H         0.61644178807002   -0.70769582303000   -0.32603412735632
H         1.66285233095864   -2.26068198467772   -0.48810973827831
H         2.57546417847111   -2.83476215424480    0.94555080204361
H         3.43362602699669   -3.29619647290825   -1.66968308232687
H         5.32717667194710   -1.96902710076102   -0.09917552124242
H         8.44563241325993   -0.57237625554159   -0.87988037558486
H         7.08317609805313   -1.67314640895488   -0.77455103954079
H         7.34137138647732   -0.91032433829040    1.94477584412623
H         6.47304748844519    4.57553422044799   -0.08958223220416
H         2.98904110861371    3.15606334529551    0.17310185606728
