28
 energy: -47.951268705684 gnorm: 0.116215683037 xtb: 6.4.1 (79825abcba525fcdf90b791dcacef51065a7a4e7)
C         1.17852146429021    0.13471026344119   -0.51319522912247
C         2.65776782205611    0.02809558531745   -0.21354281112405
C         3.43025323059345   -1.14904218909542   -0.36097979277647
C         2.74862845958920   -2.50182946056752   -0.48583933204338
O         2.15994783087763   -2.86096484204375   -1.73547532176936
C         4.84346175215966   -1.12312912370464   -0.24035080648817
C         5.51016882084226    0.03311021465327    0.18764553183660
O         6.87829515089382    0.08870391402151    0.30408884889495
C         7.43841976917298   -0.80009199914090    1.26471154890565
C         8.53555081265282   -1.64121150079407    0.65223829200168
O         9.48697915811709   -2.10291215218064    1.27884250714512
C         4.74295710242002    1.20051526313041    0.19848985633331
C         5.38377867677728    2.47173903414907    0.43051797959826
C         5.80373188811143    3.53177011430156    0.78540548077492
C         3.35435209983836    1.24665372158626   -0.01836354772370
O         2.61733926513418    2.40616640889321    0.09125151326680
H         0.93889378098691   -0.20963950731444   -1.51894620171872
H         0.89547963774694    1.18286895084144   -0.34327654708306
H         0.68255558126540   -0.41867978085482    0.29284083383719
H         1.98145294390613   -2.52308698625450    0.27868555201463
H         3.54542363329569   -3.23966948979460   -0.32197148048649
H         1.51909205511069   -2.25928718099096   -2.15126172486925
H         5.34439511109937   -2.08287220464514   -0.20437402237379
H         6.63256073894531   -1.36283705611336    1.74098039128457
H         7.85571814075292   -0.18621612692562    2.07043288201136
H         8.41830397936806   -1.74168673510341   -0.44007032921446
H         6.15660026454231    4.51804213114749    0.99553328037351
H         3.13848781264836    3.21961379072608    0.19766207995654
