28
 energy: -47.949497289793 gnorm: 0.114107236286 xtb: 6.4.1 (79825abcba525fcdf90b791dcacef51065a7a4e7)
C         1.45298002037254    0.20904006840101   -1.08754225592833
C         2.83678500003596    0.05518764551879   -0.49530814709365
C         3.58875735426734   -1.14262113961566   -0.43272715716730
C         3.08949564922906   -2.38459864132103   -1.15277246713103
O         3.94346066702930   -3.52777900608625   -1.18432568673220
C         4.88965522647154   -1.13497374771950    0.13294711830804
C         5.34289604237473   -0.03013139892686    0.86674867003842
O         6.56719569584383    0.12856307163892    1.47034272213552
C         7.53526541070906   -0.85174268187362    1.11210343053742
C         7.90240387558640   -0.72739667544419   -0.34941955957867
O         8.39582867202448   -1.57974139333362   -1.08498511226394
C         4.51031616584357    1.08643913056749    0.97466978048182
C         4.88503534116971    2.29227490951645    1.67183894102477
C         5.37129471128137    3.38030513793937    1.74742855230681
C         3.27826889246598    1.14243523744780    0.29916851264747
O         2.52098360520088    2.28773256171723    0.41952666266302
H         0.76723408728079   -0.36497679087500   -0.46481408932697
H         1.24723366712043   -0.32149005644748   -2.02766346195449
H         1.03987704677789    1.22245822396322   -1.15270664896339
H         2.87910636678923   -2.11068748164575   -2.17952339862356
H         2.11064309717277   -2.70472512776391   -0.77131495104562
H         3.35836452836940   -4.25803888717034   -1.44885069947809
H         5.46982935400355   -2.04848773249997    0.08577178922230
H         7.23286029890028   -1.87530632704094    1.34403315521997
H         8.44991330965760   -0.62478387649171    1.67074222732031
H         7.52834195788217    0.17008824733523   -0.87055170339619
H         5.76681434798490    4.36180693188182    1.89446843291364
H         2.95500853770605    2.94950575049553    0.98370240405447
