28
 energy: -47.949343840501 gnorm: 0.118295623823 xtb: 6.4.1 (79825abcba525fcdf90b791dcacef51065a7a4e7)
C         1.15211230245125   -0.11713249904251   -0.55830837999394
C         2.64687175113253    0.00260526741940   -0.35660292339867
C         3.60706513030549   -0.99369045963587   -0.65584896113979
C         3.12438862414430   -2.21782834461320   -1.41660217359465
O         4.09890032525545   -3.22262245879464   -1.69558056362724
C         4.94555304651164   -0.85165778317477   -0.20790034525993
C         5.37497850590146    0.30223029397036    0.46195385492322
O         6.68277168242163    0.43537993039029    0.86241300274402
C         7.43036873532740   -0.76048522487690    1.05605934249688
C         7.94996601976157   -1.41278840567015   -0.20521828424632
O         8.68966998653787   -2.39454226379529   -0.20152597443513
C         4.41033915878767    1.26253825118950    0.77635090324185
C         4.87033711933830    2.49531677273697    1.36724698821595
C         5.45007789455058    3.42924348967893    1.83378019805356
C         3.07167779547796    1.14820878874008    0.36126956109698
O         2.26334593681029    2.19933333431724    0.73731456429423
H         0.97320715884972   -1.00358495456445    0.04974442086234
H         0.93061550875893   -0.08973852136835   -1.63432436681419
H         0.59245050522091    0.68496488322272   -0.06299505504225
H         2.77086071954918   -1.92562097804071   -2.39799981212776
H         2.33619394163838   -2.72283768170383   -0.84226965897403
H         4.65179141717989   -3.26217149084666   -0.89662012489091
H         5.60708316568060   -1.57468167304741   -0.66936506491784
H         6.81139232395250   -1.42223648294988    1.66587592046038
H         8.30524330616637   -0.51210967916808    1.66685591736279
H         7.66796455602271   -0.80134642367701   -1.07905699520049
H         5.90540073224708    4.23370146940035    2.36943936152027
H         2.97418764465650    2.77780790433801    1.06086812775023
