28
 energy: -47.947975202880 gnorm: 0.118426422054 xtb: 6.4.1 (79825abcba525fcdf90b791dcacef51065a7a4e7)
C         1.19987305627617    0.12365657084004   -0.35241272347876
C         2.70949634474750    0.02276522374628   -0.33875604177597
C         3.41953673210350   -1.19959189144755   -0.26252984778168
C         2.76937036010427   -2.57075957938163   -0.34866048399451
O         2.25344849702647   -2.82571830208845   -1.65477452727774
C         4.83276429541641   -1.08479903084299   -0.30715732213798
C         5.51497698783730    0.07824573755345    0.07557141661988
O         6.87958367089585    0.10975532090931    0.23455286123405
C         7.40145873726464   -0.85728979941065    1.13951909457391
C         8.54514664741962   -1.65293611687721    0.55195894025307
O         9.33060706118012   -2.10170602898763    1.38422917020549
C         4.76821651816299    1.25783991348843    0.12529395237198
C         5.29755190644468    2.48991677442639    0.65660351317440
C         5.58171628122747    3.60033995115486    0.99154036190409
C         3.41251062086442    1.24985505208764   -0.24803668966075
O         2.78189468820433    2.47461963471655   -0.20389696662797
H         0.70851697137781   -0.12845374023367   -1.29185021235702
H         0.90154457221760    1.17485342958782   -0.23576391050035
H         0.83941558091652   -0.51603161702018    0.46170413622661
H         1.97081472560568   -2.60706420160613    0.38243412205485
H         3.53265390944080   -3.32651337831218   -0.11979906867250
H         1.66666682339953   -2.12956003926729   -1.99630257581119
H         5.40387988880020   -2.00212798181525   -0.38245613373236
H         6.64617700868265   -1.56986546329962    1.47820511253761
H         7.70553487277644   -0.31209885969445    2.03978179309828
H         8.45121482863605   -1.89605690233944   -0.51997823775275
H         5.94729334939837    4.51090940324830    1.41417371096892
H         3.44876627466528    3.11682040763167    0.09186665528018
