28
 energy: -47.945697229982 gnorm: 0.125902613437 xtb: 6.4.1 (79825abcba525fcdf90b791dcacef51065a7a4e7)
C         1.33238771580688   -0.13255524468738   -0.87484538117532
C         2.72136765994831   -0.03757010038756   -0.28235860206166
C         3.35381012141270   -1.20658865197745    0.20501895782351
C         2.64784347651078   -2.51245332597120   -0.12142277197735
O         3.14390323388107   -2.87677049479563   -1.40917699632840
C         4.71523431605526   -1.15585712540715    0.60040693397615
C         5.37466991683584    0.06883294057249    0.77317130924384
O         6.58354154374584    0.30352755895426    1.38306244911939
C         7.58030681825886   -0.71266781342228    1.36575093249236
C         7.76838941684820   -1.21750996706684   -0.04706942792343
O         8.61281994221475   -2.04096233939182   -0.39330563254632
C         4.73195105819459    1.25635569405073    0.41502584631958
C         5.45839388091336    2.46367358117674    0.72351176228449
C         5.82418569307341    3.52414916267321    1.13285223713243
C         3.47443102343590    1.16051818086932   -0.20693600238788
O         2.95587222582580    2.24787063555333   -0.87658850314587
H         0.53876900199601   -0.58176633200566   -0.27826182412520
H         1.48490526176944   -0.80402293844804   -1.73128639232592
H         1.07946719932119    0.88245183122567   -1.20303538970906
H         1.58108521697208   -2.39605444254375    0.02685592332424
H         3.02779310851024   -3.23827597004367    0.60998880901726
H         2.57061200382643   -2.39130252426382   -2.02663022095283
H         5.19280605001152   -2.06685063085713    0.94004117236670
H         7.27700247433527   -1.49068485798755    2.06975287833577
H         8.52134619349818   -0.22417991065818    1.64141893452799
H         7.07013215450741   -0.72128574731455   -0.74217987699168
H         6.46095186149043    4.37565858193541    1.23707716557382
H         3.62540638802884    2.94089774551605   -1.00328930648766
