28
 energy: -47.953384475901 gnorm: 0.105698160167 xtb: 6.4.1 (79825abcba525fcdf90b791dcacef51065a7a4e7)
C         1.25042628457485    0.00862596145849   -0.90732078258128
C         2.63390982986331   -0.02187763366937   -0.29546226966428
C         3.39593259896603   -1.21202356846135   -0.21180439684976
C         2.97971599546980   -2.57218764372491   -0.74748438562313
O         4.14792343572700   -3.27862573004277   -1.16383738824405
C         4.67918615239047   -1.16480469103814    0.39103210597522
C         5.23182366630175    0.04426721101717    0.83522293935232
O         6.53165502221249    0.14942242291875    1.26858212910075
C         7.43957350319816   -0.92809597038454    1.06577218405384
C         8.12495107293418   -0.88892878934985   -0.28145665659669
O         8.27762834609305   -1.81422830851100   -1.07614318569220
C         4.49418954904799    1.22003644791521    0.67701871750971
C         5.06807031558922    2.44410496036863    1.17982718040702
C         5.57405421193157    3.51124506712632    1.35636050388039
C         3.18716119592442    1.20119141306989    0.15865614971145
O         2.55324006861890    2.42486868360872    0.13789588467979
H         0.86914410269411   -0.95705230941124   -1.23841378762208
H         1.23293999340641    0.70966066603991   -1.75340956984972
H         0.56973127206566    0.48932560380878   -0.19493115475863
H         2.30136507134235   -2.59139742358888   -1.59186549270222
H         2.65965775079731   -3.23106046912389    0.07080190057968
H         4.79012775246270   -2.69395628670836   -1.60124535062168
H         5.27008990781696   -2.05305889832042    0.57857556708129
H         7.01325628508009   -1.92875566203629    1.16505256848339
H         8.16050708247214   -0.84191919810795    1.88613595764986
H         8.48636600999494    0.12193558480992   -0.53545011362741
H         6.03853269792134    4.46756653997420    1.46177041257751
H         2.95576125689232    2.97212646440210    0.83295075861345
