28
 energy: -47.950698450112 gnorm: 0.111837255572 xtb: 6.4.1 (79825abcba525fcdf90b791dcacef51065a7a4e7)
C         1.01048162481160    0.07598421007308    0.00290334576568
C         2.52159299851353    0.09407693776897    0.07735530143155
C         3.29585385049451   -1.09058328140437    0.11235508850911
C         2.72583940788615   -2.49671866477843    0.20236865868122
O         3.72739338622903   -3.39235167632433   -0.27913352590929
C         4.71024482659380   -1.08249427210046    0.00366339859714
C         5.39753755058811    0.13431899296707   -0.10386686630582
O         6.75886051025566    0.31648874741731   -0.05877442204774
C         7.69980876405240   -0.74003673328681   -0.21645769445967
C         8.07079610763624   -1.52836958979064    1.01934233960436
O         8.84719079559861   -2.48133122687520    1.02891496260844
C         4.64891296955667    1.30463926657121    0.04268568462335
C         5.27119842891251    2.56118253421250   -0.29548443413378
C         5.55733964089225    3.70415924594372   -0.48964716971665
C         3.24920559104248    1.30599451786289    0.17757604430148
O         2.61296475703113    2.51834524960741    0.33593116931880
H         0.63050701721670   -0.76829335307252    0.57766233910587
H         0.65024083152233   -0.16797707689618   -1.00622059188983
H         0.67425347297697    1.02048400967677    0.44651081600724
H         1.78960800291638   -2.48318091974489   -0.34242114935253
H         2.51144545133675   -2.89723275586936    1.20225206091272
H         3.91077054895577   -3.18237855581086   -1.21073138611041
H         5.23439624575018   -2.02226546144420    0.12788389700694
H         8.60517385054280   -0.16309512799753   -0.41739358058821
H         7.43265910290396   -1.34109322769915   -1.09254589078322
H         7.71785401716484   -1.10593011331269    1.97535331430058
H         5.88626049062870    4.61163582940748   -0.94757685700490
H         3.26080464159765    3.24039466256104    0.39562866772524
