28
 energy: -47.953095899590 gnorm: 0.121057685288 xtb: 6.4.1 (79825abcba525fcdf90b791dcacef51065a7a4e7)
C         1.21809048127638   -0.32232139342607   -0.21996153385621
C         2.69846175907536   -0.01562608613558   -0.28133672830211
C         3.65500875805334   -0.85848145693956   -0.89675315134443
C         3.10234197827337   -2.14802143594828   -1.48145967074797
O         4.10974218075613   -3.06457647068335   -1.90829092125621
C         5.05481653958176   -0.64995589997391   -0.79961184612994
C         5.44365284473127    0.43148324658496    0.00279969436972
O         6.77528645159510    0.75246597620677    0.11298764877395
C         7.83453857204623   -0.19851369771010    0.12377341587781
C         7.35277975408334   -1.51840150255693    0.68243848031459
O         7.85979183291696   -2.62777909747716    0.53000379538886
C         4.53586594413508    1.28425966124126    0.63546176367619
C         5.03946399044631    2.21822811089797    1.61249356959415
C         5.64606698298664    3.02566980011646    2.24970817450297
C         3.15171815928029    1.08335859640089    0.49002559064364
O         2.30736487680914    1.96577044006551    1.12884475464113
H         0.72427798103777    0.58743124433078    0.12067399646084
H         1.03478811023907   -1.16237535997123    0.46438577574411
H         0.75454992948816   -0.68324107410300   -1.14558779100694
H         2.47528930344553   -1.96084387141678   -2.34475449593731
H         2.63106818288843   -2.56177567360843   -0.57987685428299
H         4.60746078737232   -3.47752786561258   -1.18211063941629
H         5.61254273609809   -1.41085972253649   -1.33187324385603
H         8.56144674435749    0.22371829594584    0.82108786294485
H         8.28342032364967   -0.34868933621127   -0.86421485903028
H         6.44295393276892   -1.39469391849793    1.29390689685909
H         6.14466199318169    3.73905652574795    2.86929244437157
H         2.88475444889456    2.66314466062445    1.48226538830252
