28
 energy: -47.945277524299 gnorm: 0.123650113867 xtb: 6.4.1 (79825abcba525fcdf90b791dcacef51065a7a4e7)
C         1.42736568394268    0.18627384557424   -1.10080543460628
C         2.80464363282519    0.09829706716570   -0.48056871149018
C         3.59841932415399   -1.07094221097473   -0.56378157264234
C         2.99544265841988   -2.34833121894703   -1.12496968938753
O         3.85283047477090   -3.43201641637798   -0.76772223376809
C         4.91497917968535   -1.05232357457077   -0.03585671135925
C         5.30674000449833    0.07352251193490    0.70141028844379
O         6.55595522416681    0.14160013179734    1.26995768104942
C         7.54699479638227   -0.82439198163642    0.93650074016216
C         7.94136880517863   -1.01311116845031   -0.51096471258805
O         8.81446541207565   -1.74773159019921   -0.96818608055398
C         4.51127817616208    1.20331981679102    0.90723665379522
C         4.94283622414654    2.43661146975924    1.51817736610659
C         5.24369398517001    3.30613115836734    2.27935529751282
C         3.28244442623142    1.23110406720556    0.22417467528389
O         2.33636207563195    2.23151965736791    0.28557413910709
H         0.90808898422913   -0.71152980560621   -0.76639023191226
H         1.53184301671834    0.09141708385105   -2.19062576357193
H         1.01612731575670    1.10449566351732   -0.66529592366189
H         2.81114270206963   -2.31787757880451   -2.19202852201213
H         2.02579234385108   -2.44921474560321   -0.61925839445660
H         3.44084893382675   -4.28847071053055   -0.97350785093480
H         5.73588408906081   -1.71692727440277   -0.27617397849405
H         7.34966583287520   -1.78185980842076    1.42357303870508
H         8.48797317086348   -0.46693931360804    1.36888444925645
H         7.32071837926521   -0.45751150011400   -1.23420898138860
H         5.53777160544397    4.05962859538917    2.97732538087114
H         2.61210015869325    2.79503216784617    1.02789336039923
