28
 energy: -47.951060488162 gnorm: 0.123132397553 xtb: 6.4.1 (79825abcba525fcdf90b791dcacef51065a7a4e7)
C         1.21853096943467    0.15486113168814   -0.71155297536369
C         2.65128614457331    0.10902949901421   -0.22736282468280
C         3.28517135067765   -1.12529620903609    0.05326909089761
C         2.78274009133247   -2.54735333590481   -0.13528320227184
O         3.29382598523850   -3.17991446456094   -1.30821578179442
C         4.63223024856998   -1.08610083286819    0.49630091415041
C         5.37693106186618    0.10116857186643    0.47679116215484
O         6.61144893668559    0.28104711156312    1.05301046477468
C         7.43728598087248   -0.84793885297759    1.31735417598612
C         7.90433889026744   -1.44487420058763    0.00898427268336
O         8.70078381354166   -2.37914285410500   -0.05293339761861
C         4.76755022522431    1.30734989310818    0.12274656713294
C         5.31816464731669    2.59024063959356    0.48539556182643
C         5.90953262928558    3.58725559120210    0.77213031554902
C         3.39938247318776    1.31232409706455   -0.20201528277822
O         2.72830853479682    2.48415174101420   -0.47797322495422
H         1.24845759304011   -0.32397408693777   -1.68999788502414
H         1.03080026797153    1.23761539773857   -0.70685699685697
H         0.52946208282674   -0.39555251843876   -0.06028827451148
H         1.71597775714839   -2.55847773903090   -0.32343956388642
H         2.89932767633065   -3.18792039876378    0.74915124521017
H         4.25235538204164   -3.33327661031576   -1.25084057450971
H         5.16887701045836   -1.98433817372916    0.77650666873852
H         6.93803768396069   -1.66303016236723    1.84584266129755
H         8.33984331518168   -0.41990212376516    1.76717991985693
H         7.57525466882741   -0.91130275745899   -0.89875209143724
H         6.14982516439513    4.45572653951344    1.34608151952135
H         3.32942658180596    3.24038965414575   -0.37131032893068
