28
 energy: -47.947326829271 gnorm: 0.120665876720 xtb: 6.4.1 (79825abcba525fcdf90b791dcacef51065a7a4e7)
C         1.25557241310515   -0.18894757531528    0.29674039529542
C         2.74715253944534   -0.09669236831168    0.06008507930111
C         3.55871270967105   -1.17824355639710   -0.35913063285259
C         2.86226229477237   -2.52602257324842   -0.45231954557062
O         2.72154041095958   -3.04073182235633    0.87145723222103
C         4.95580098170562   -1.11167218329399   -0.59597184354794
C         5.56004404422696    0.14269688952844   -0.43467360804045
O         6.88217301568704    0.49277114808072   -0.30109835723072
C         7.89941995883254   -0.50292192062419   -0.28384446650310
C         7.70932921307131   -1.44908858828867    0.88017279111712
O         8.63278708747206   -2.15590392634204    1.27848656463519
C         4.69558342173198    1.22824862440137   -0.27389046621302
C         5.33770726218887    2.51922304462907   -0.23437821206539
C         5.78374291139444    3.62645492093876   -0.20179771298913
C         3.35733225205174    1.17879386230241    0.15508041329864
O         2.49836341217029    2.18899138860170    0.53104121333335
H         1.13462016287530    0.34610783585447    1.23834512741406
H         0.87101845802590   -1.21837909946421    0.30000444109038
H         0.73212388628030    0.37563394485216   -0.48375058923631
H         3.44171799773848   -3.31950010226579   -0.90853544661045
H         1.91292090115972   -2.43575883117687   -0.99706398336617
H         2.18285804883717   -2.41119760712411    1.38047437631209
H         5.60999507448678   -1.95686657446300   -0.77207368057677
H         8.84414216987725    0.04491209829753   -0.26650617940653
H         7.82599510600275   -1.11898566040496   -1.18675234731240
H         6.71474860757859   -1.46582799302004    1.35715227394630
H         6.36483208261511    4.50280124932058   -0.01270842976770
H         2.81926097447517    3.10488884396006    0.58369346713907
