28
 energy: -47.950193841194 gnorm: 0.112901129558 xtb: 6.4.1 (79825abcba525fcdf90b791dcacef51065a7a4e7)
C         1.17448858056710   -0.17429832254437    0.13911903206478
C         2.67146758761757   -0.00803232090229   -0.00488620840950
C         3.53025185076582   -1.13312499140147   -0.03282868187455
C         2.76105659784885   -2.44321302335998    0.01453847772215
O         3.43482453756283   -3.68999483927043    0.18390517040094
C         4.94267649378023   -1.02197674370993   -0.10412984348645
C         5.48297776557017    0.26860257101214   -0.18808315842879
O         6.82826447150050    0.54646208321203   -0.15043825495944
C         7.74600489289477   -0.53414865378463   -0.27899441997245
C         7.84670231065310   -1.46204074117841    0.91061826313302
O         8.42018372641437   -2.54855635035522    0.87037988615899
C         4.62984556623955    1.37322220729287   -0.12852739597403
C         5.36184837187848    2.60990626479973   -0.00490031533692
C         5.70361325038464    3.75165910165075    0.06972515489058
C         3.22655137327840    1.29327535810457   -0.08667153904695
O         2.40777613387355    2.39800068287488    0.00746724888355
H         0.74331164507829   -0.97003132411035    0.74610226326004
H         0.61471702195529   -0.38888008355909   -0.78187615313778
H         0.77995560275853    0.71224647752518    0.64931397253087
H         2.23270020359722   -2.41703300225443   -0.93079880755383
H         1.97451043452507   -2.38237097121600    0.77859770732708
H         4.21212833859076   -3.58955251349809   -0.39168201561824
H         5.54198525891360   -1.87128365230345    0.20057019864465
H         8.69769495880826   -0.00147130195157   -0.33784715821587
H         7.61898028568489   -1.03333740238055   -1.24586758889907
H         7.44905111517922   -1.04448041056587    1.85109532990480
H         6.20604887604040    4.67856785084001    0.24235449838021
H         2.89572066290100    3.23583643534352    0.07497316807089
