28
 energy: -47.954530142408 gnorm: 0.113604079785 xtb: 6.4.1 (79825abcba525fcdf90b791dcacef51065a7a4e7)
C         1.31515944732158    0.08270568907160   -1.12800319371892
C         2.68121191020830    0.04652436088769   -0.47844980577108
C         3.51632722766456   -1.09461518647818   -0.41131094400167
C         2.83268947716332   -2.43884294004243   -0.60085457175724
O         3.62194643572850   -3.62601324458367   -0.53147643478032
C         4.86637764838964   -1.03756366664021    0.02053407400395
C         5.42386617851321    0.15477398345317    0.50230790911891
O         6.63632010682411    0.27834424494240    1.13721357816405
C         7.57595426750842   -0.77495017238435    0.95241032326323
C         8.10083101308430   -1.04540125135120   -0.43958919012995
O         8.88840775915654   -1.96045096030213   -0.67072362896556
C         4.52161006305419    1.20617592666617    0.68134368090619
C         4.97243833813519    2.48685580780651    1.16828526775234
C         5.31893697100509    3.48301296901953    1.72826859712849
C         3.23086991247251    1.20580569186149    0.12334034268682
O         2.43305611070756    2.28528727936347    0.43620722967184
H         1.05856185459695    1.10564657031096   -1.40238036748419
H         0.57125759537607   -0.37692180375300   -0.46244007568257
H         1.34371679697820   -0.57304251619215   -2.00612368561939
H         2.29616138340759   -2.38331570913734   -1.54030269636192
H         2.00971019596896   -2.52332909111404    0.12144060123886
H         4.12989546078011   -3.69475816248506   -1.35782526629163
H         5.45715672649731   -1.94516175406198   -0.00357233878673
H         7.23888256850930   -1.72743487356030    1.36723359527077
H         8.45257660004146   -0.37856118326486    1.47641169628963
H         7.82461525933943   -0.31940444841943   -1.22292418539185
H         5.71902576858732    4.46947584819417    1.81894503467269
H         3.07616299919847    2.92674160246829    0.78198974588149
