28
 energy: -47.947194922224 gnorm: 0.142851956595 xtb: 6.4.1 (79825abcba525fcdf90b791dcacef51065a7a4e7)
C         1.26820424640156   -0.05524774848608   -0.52467815089036
C         2.73595984318349    0.00771520733186   -0.16265988390944
C         3.52683311798217   -1.15770625882327   -0.01970187325887
C         2.86960971517428   -2.48673024569900   -0.35434838245234
O         2.91923061529797   -2.75206064083017   -1.75586569118191
C         4.92897745441860   -1.07743858859701    0.18012187167923
C         5.53900160919202    0.15695553969793    0.44224827475261
O         6.87946933523014    0.29654868302650    0.71072433051631
C         7.48069423651791   -0.79829480238352    1.39361531500343
C         8.26496248568288   -1.56704694461995    0.35426672404999
O         8.21080386557712   -2.79390530597513    0.30039988055054
C         4.78559781486685    1.32965010208898    0.34878089223059
C         5.27632405365219    2.66798289557389    0.56912677686984
C         5.38913288525145    3.85677423678029    0.56453863060500
C         3.40667282276825    1.22982084874940    0.09191906175159
O         2.54167647503493    2.27955728986397   -0.13058438552114
H         0.67350808263073   -0.69764988476485    0.12431273992457
H         1.24703762700558   -0.42573268580113   -1.55904489193502
H         0.96587612322701    0.99855877256982   -0.52215661216989
H         1.81642589222360   -2.48903917029477   -0.10076021766775
H         3.41857467996968   -3.21627386615467    0.25601766019628
H         3.75997802875327   -2.42579382704295   -2.11957467038535
H         5.42389864877770   -2.03236628931010    0.05166396205930
H         6.61098659117756   -1.33811035892757    1.77457537102776
H         8.19401223778786   -0.34457387442011    2.09038151198950
H         8.78314189844664   -0.96785534143109   -0.41348306341468
H         5.98410320026220    4.74394581013550    0.58295621955962
H         3.06413966992535    3.06753419315321    0.09467163986737
