28
 energy: -47.955804575670 gnorm: 0.112761456962 xtb: 6.4.1 (79825abcba525fcdf90b791dcacef51065a7a4e7)
C         1.40049869020697    0.00363230017120   -0.85836759441273
C         2.84837651544974    0.04297219078235   -0.42084020942137
C         3.59267926985463   -1.11682630921812   -0.09679461779922
C         3.18481076918767   -2.55508597351937   -0.37118129801164
O         3.60557079374593   -3.03877494993596   -1.64637508277609
C         4.86368038319647   -1.00648443614413    0.52349724761514
C         5.45586382375286    0.24493522826166    0.74221206982135
O         6.71412608891193    0.35466970691266    1.28364883538499
C         7.49942726066022   -0.82050622508701    1.45322868864729
C         7.45366338833706   -1.75798983142748    0.26776161371476
O         7.65730847921611   -2.96731388765358    0.18361749352556
C         4.75356849471917    1.40855790828655    0.41921132286758
C         5.29688691411093    2.73998959521256    0.53143413667556
C         5.45249964449258    3.92322753473169    0.57271831282626
C         3.46736952479855    1.28544745594815   -0.13568869304735
O         2.71715417542529    2.42719031141809   -0.31809821485557
H         1.34676420239077    0.03511290587601   -1.94632659411036
H         0.98462991353808    0.93148723775384   -0.44152224754105
H         0.85495247713094   -0.88011937997932   -0.50725632298994
H         2.10834119488062   -2.59135231526000   -0.25539503333481
H         3.61109740081484   -3.30333551364170    0.31039441922187
H         3.45409571663413   -2.34440901948178   -2.31007812149228
H         5.45072259934213   -1.88300042578942    0.76933559031588
H         7.34282955605228   -1.43786672130727    2.34050877914126
H         8.49837586138583   -0.37085314699386    1.46229435230605
H         7.22588326179697   -1.21321644616330   -0.66407441725139
H         5.90853773917240    4.83657560400201    0.88772123159867
H         3.19203775814902    3.25398654753358   -0.12965929052304
