28
 energy: -47.952573487259 gnorm: 0.119078936747 xtb: 6.4.1 (79825abcba525fcdf90b791dcacef51065a7a4e7)
C         1.10112685765771    0.02160770893252   -0.44495817537776
C         2.54980470908482   -0.16734504965519   -0.05131192626457
C         3.30937848523414   -1.34400373317792   -0.25782274364534
C         2.65639650581661   -2.66213441588785   -0.64042131850913
O         1.46430596647440   -2.94386123805209    0.09215178844085
C         4.72365452036279   -1.33553594006519   -0.36797150072922
C         5.38441933866833   -0.14119131648306   -0.04938186576203
O         6.71304919409398    0.20643980632714   -0.09749293768913
C         7.66451640327835   -0.84854610560138   -0.18809431720632
C         8.98360234663439   -0.24442067995232    0.23775398898807
O        10.06435783332692   -0.75866677983217   -0.04248654744446
C         4.65662163520127    0.91478056602549    0.50451330522475
C         5.39905165797310    2.10461690034723    0.84153906647964
C         6.11101256936550    2.99716718567888    1.19144958585235
C         3.25189794295322    0.95495897527203    0.45436315136805
O         2.47233679448465    2.04700570067407    0.76962718435731
H         0.60692277031243   -0.84536018132937   -0.88275059090621
H         0.99004676840149    0.85329761027796   -1.15458820910835
H         0.56804232793797    0.38132564260901    0.44292735914216
H         3.38742096219088   -3.45278942917028   -0.52219972341699
H         2.32424249588812   -2.63734171407627   -1.68694038803357
H         1.45781716800668   -2.27921417188638    0.80193530583798
H         5.26491793473156   -2.24322045202030   -0.60562266171320
H         7.73644431548684   -1.25247308766221   -1.20031571298978
H         7.41822658579012   -1.58834427025677    0.58145645125868
H         8.94671467511693    0.69903823057971    0.80828426947281
H         6.49994817318176    3.97537081243359    1.37379276089094
H         3.13008911879418    2.75389406699080    0.88047114371621
