28
 energy: -47.952595590333 gnorm: 0.123837123507 xtb: 6.4.1 (79825abcba525fcdf90b791dcacef51065a7a4e7)
C         1.35130248680626   -0.14953099128669   -0.92664406090429
C         2.72559515722045    0.01330938008505   -0.31498181586545
C         3.50575194169961   -1.12897885845378   -0.01388768699076
C         2.97979974576056   -2.54702456587229   -0.16473958563386
O         2.78814374384306   -2.89857096738304   -1.53470174613638
C         4.81626193300369   -1.07653703973192    0.52666257274839
C         5.42280123551313    0.17975374112399    0.66235389852888
O         6.60511286333924    0.32763070472062    1.34696399253092
C         7.52024875295747   -0.76084542723245    1.41207731615213
C         7.84708500921994   -1.33605835042082    0.05244126712613
O         8.44371314547842   -2.37974662008211   -0.20400734864699
C         4.70788952825584    1.33250514382347    0.32824101093170
C         5.35027435946469    2.59112561732815    0.61757721582661
C         5.87031371401102    3.66552529395518    0.65216233238688
C         3.36274880838758    1.25603555491957   -0.07440876609947
O         2.70924272227910    2.42895884569868   -0.38562219407249
H         0.72749527584206   -0.44616269124430   -0.08378736569372
H         1.38891279736409   -1.00567375863011   -1.61455880287385
H         0.88732852404234    0.65056381838324   -1.51528085783146
H         1.92103032135236   -2.59702791327684    0.05890170107226
H         3.54983714795974   -3.30040742861708    0.39527358140025
H         3.63762821707745   -2.93732776211903   -2.00636318057134
H         5.30404052716373   -2.00043596108011    0.81270131561581
H         7.05345503438330   -1.55009973399011    2.00546087582252
H         8.40779969185562   -0.32495218646650    1.88369029007881
H         7.39564797276572   -0.73964358666200   -0.75840659023257
H         6.50346917758537    4.48848754162573    0.90365700834121
H         3.22063328980370    3.04450653268089    0.16591783348695
