28
 energy: -47.948947342861 gnorm: 0.118300347083 xtb: 6.4.1 (79825abcba525fcdf90b791dcacef51065a7a4e7)
C         1.01581534630031    0.18418630143470    0.11968584142890
C         2.51801857396700    0.07084096198800   -0.02126212174214
C         3.19863897171785   -1.17014337011263    0.00769387625684
C         2.51918929839747   -2.52769878453438   -0.06731984244105
O         3.29108885488580   -3.47714198120794   -0.80205918648316
C         4.61247262306088   -1.21048210389808    0.11645204609197
C         5.36419517306952   -0.04269519176483   -0.07263920771539
O         6.73534754128368    0.01051991726733   -0.14699430892166
C         7.57780681398694   -1.12870856673292   -0.00946410465678
C         8.59604293635189   -0.92349712737884    1.08934684092945
O         9.63244234018029   -1.57996413625839    1.16644140380184
C         4.68741508300124    1.17930139041892   -0.05654531770667
C         5.32905238778369    2.45432523473736   -0.26418678392652
C         5.47990021823395    3.62714495608690   -0.09772185892739
C         3.29979467451201    1.23827677003220    0.16347628240186
O         2.61891099770648    2.43315548005730    0.25477432505631
H         0.77178154503323   -0.08731372191021    1.14646159578382
H         0.47537782423584   -0.46447836053752   -0.58372236307179
H         0.66399912688312    1.22124649458535    0.06822391467124
H         1.50501152711685   -2.57678829108012   -0.44486733861637
H         2.56262236084194   -2.88692992927548    0.96960333845560
H         3.48902350434751   -3.07321194484396   -1.66418033134072
H         5.04848656125808   -2.19429670035358    0.24029070087030
H         8.19264738453646   -1.11747557553036   -0.91210892804413
H         7.02923134540599   -2.02848573633935    0.28992590758746
H         8.29156493712671   -0.13760936994661    1.80114301702367
H         5.62950592583238    4.64828723073586   -0.37392625691504
H         3.20055267391991    3.21174108505963    0.26540804733555
