28
 energy: -47.952975436519 gnorm: 0.109489732606 xtb: 6.4.1 (79825abcba525fcdf90b791dcacef51065a7a4e7)
C         1.43228412277746    0.20455690153327   -1.05873758828835
C         2.78548484134203    0.01928624547187   -0.40769947065166
C         3.45024665133084   -1.15248132544480    0.02724556349670
C         2.77644423492542   -2.48497159843067   -0.25682414345689
O         2.96079452939604   -2.94620295758313   -1.59488012648281
C         4.76180205572288   -1.15469152005359    0.56779961108124
C         5.40832359670134    0.07911562089491    0.72367906268753
O         6.72301147640801    0.33031643739659    1.03498804692025
C         7.55547201142227   -0.82177569531016    1.11364493858381
C         8.09066877776142   -1.47006781688577   -0.14316999469305
O         8.75086778332047   -2.50661311068376   -0.11620044249103
C         4.68623228822031    1.25497413488216    0.50571839451487
C         5.29604040740403    2.52008639926258    0.83454086798525
C         5.42193042679394    3.66912961655741    1.13424590886502
C         3.37012290362163    1.24048757656184    0.01071917803174
O         2.66904490290279    2.41757467846542   -0.13970900587209
H         1.24291531893286   -0.64654928611828   -1.71241252369010
H         1.46655125584783    1.08674666904157   -1.71309883447093
H         0.63567151027519    0.41555011137653   -0.33568362287673
H         1.69626922059132   -2.48470417449872   -0.17478564846125
H         3.02119298461207   -3.20762485864388    0.53312106875206
H         3.68395526795165   -3.59592925334593   -1.61689726786668
H         5.26133648840183   -2.09344234043511    0.77407024149564
H         7.03227723709589   -1.59061532769818    1.68642380748179
H         8.38024541185549   -0.42815192465107    1.71777865618800
H         7.84280273288888   -0.90774751536368   -1.05932419453423
H         5.56249657484991    4.72368277087230    1.23202665565823
H         3.21782385257834    3.15062931499800    0.18600287262857
