28
 energy: -47.956199096622 gnorm: 0.111748511724 xtb: 6.4.1 (79825abcba525fcdf90b791dcacef51065a7a4e7)
C         1.25735658748899   -0.15945722286238   -0.65941412466250
C         2.71306937335739   -0.11230159179409   -0.24953040484237
C         3.50465554031126   -1.27835519665622   -0.11598256323730
C         3.02840785060200   -2.58330409033842   -0.73285544294628
O         2.72148624203985   -2.47661038731365   -2.12264995761791
C         4.86807827396517   -1.17998142882252    0.26320368149689
C         5.34274074860150   -0.00447692374337    0.86107764559195
O         6.49423783998917    0.12209467032932    1.60030253446799
C         7.35299064117983   -1.01083037091588    1.52601785576429
C         8.10765255095009   -0.90481390905935    0.22005156695140
O         8.89962108934911   -1.75360717244795   -0.18411679112884
C         4.62435345406536    1.14347288446667    0.51800782595970
C         5.28860984157917    2.39106476677602    0.80571801815985
C         5.76901652500167    3.47921552216365    0.91111761933952
C         3.31321092543431    1.14499284670066    0.00979433405305
O         2.74079736803882    2.36804848795438   -0.26615975392736
H         0.68895332287956   -0.63940884819473    0.13688818880518
H         0.98738092307287   -0.67575653810364   -1.59117043144101
H         0.84238513234990    0.85383202267366   -0.71382389754474
H         2.10598300134901   -2.88854051097984   -0.25382352730301
H         3.73152872154666   -3.41903010576855   -0.61741631807466
H         3.52252036424133   -2.31391450300068   -2.64939928316107
H         5.44772227636714   -2.08603619317325    0.13509072248601
H         6.75256633062827   -1.92230933052075    1.56626136195067
H         8.00314867828922   -0.95067530395666    2.40570204857928
H         8.00617536963862    0.04092813988376   -0.33874587009658
H         6.26710262407426    4.41735092598506    1.02607184220522
H         3.27270632827348    3.08404159072098    0.11990034053504
