28
 energy: -47.956437614013 gnorm: 0.122250129569 xtb: 6.4.1 (79825abcba525fcdf90b791dcacef51065a7a4e7)
C         1.26325732751569    0.26360499599254   -0.93862620763683
C         2.65495993067336    0.13216007167686   -0.35964941805869
C         3.32700981276324   -1.10785255983110   -0.23782038170359
C         2.51076570397018   -2.37257589339588   -0.44866643414938
O         3.03138349579980   -3.23687404720824   -1.45815096827302
C         4.69372341234876   -1.14652205477781    0.14030623890573
C         5.35436610210487    0.02100977871050    0.54649488018144
O         6.68544301957907    0.08666627407778    0.88167066893415
C         7.37816789963436   -1.05255829084997    1.38046256374551
C         8.36982885694765   -1.50475725914282    0.33240403995452
O         9.45833098965311   -2.02903541048835    0.55892502494660
C         4.70309779419159    1.24819907791659    0.40013245068807
C         5.33408312625890    2.50069001765178    0.73721280526241
C         5.37813959235722    3.69318430066659    0.78180148529764
C         3.39321046156086    1.31508900582651   -0.10691676099290
O         2.73363656350743    2.52184296488473   -0.19846018561617
H         0.58236902444934   -0.38350855126053   -0.38620573147568
H         1.23221802109663    0.00421711841141   -2.00604184876225
H         0.95392342736466    1.30733686533314   -0.80880651730895
H         1.52444077651148   -2.17778847761635   -0.85206381249800
H         2.50727717667109   -3.01223835457168    0.44406134608200
H         3.98288287895723   -3.43372014115867   -1.41953743299522
H         5.13315625265819   -2.13000244994561    0.25432560153774
H         6.73481601012459   -1.89786222539488    1.63439638634203
H         7.95579507143545   -0.83144177429008    2.28468748925931
H         8.07708050202303   -1.31308642690027   -0.71379905147567
H         5.82489498185195    4.62574646665368    1.05038985554617
H         3.33963907710882    3.21580143498472    0.11105275259028
