28
 energy: -47.949323926636 gnorm: 0.122902989308 xtb: 6.4.1 (79825abcba525fcdf90b791dcacef51065a7a4e7)
C         1.27376497222334    0.20932829343878   -0.66857232959165
C         2.76671918785395    0.11278882416737   -0.44252834450899
C         3.44822078741945   -1.12359846655361   -0.33752006403978
C         2.73631605539131   -2.41315673328703   -0.71230901311438
O         3.57631914175330   -3.54330915992322   -0.47936369387985
C         4.80089429277829   -1.07483282549160    0.08707086058249
C         5.41257879693123    0.11923293694242    0.49280180145958
O         6.60153496337000    0.21732315921154    1.17484351636490
C         7.43984198378540   -0.92128132069462    1.34011574068026
C         7.93098406750514   -1.39904459305775   -0.00778030204339
O         8.48314008195929   -2.48785885131012   -0.15138906683367
C         4.75042292489450    1.33454300562657    0.30270445908331
C         5.27190644201760    2.63715402904196    0.63700772257654
C         5.72744020322308    3.64991502342388    1.07607023569428
C         3.45222189077270    1.33604055335583   -0.23771190252900
O         2.77560095501020    2.52306654799437   -0.41889260926233
H         0.98705154583125   -0.22222986225045   -1.62726215315295
H         0.79369939023555    1.19744465143821   -0.64055876002028
H         0.73522623484019   -0.45460790590765    0.01778150174905
H         2.49169924929462   -2.36618381079186   -1.76656923473502
H         1.80833958167788   -2.47927250282481   -0.12867257149959
H         3.63803453622815   -3.71360042862825    0.47603285310730
H         5.42432004983323   -1.96063797418717    0.08208117648768
H         6.84979637281624   -1.76474840049968    1.70526262528825
H         8.33334650940633   -0.62948667237131    1.90285362705476
H         7.80871196912703   -0.57528545435703   -0.73127918388324
H         5.75860034984391    4.71758477989342    1.05342918061904
H         3.15454164767597    3.32436119211038   -0.02021165443537
