28
 energy: -47.953225729438 gnorm: 0.124369355997 xtb: 6.4.1 (79825abcba525fcdf90b791dcacef51065a7a4e7)
C         1.09029107070014    0.06289584213660    0.22387900237791
C         2.59600514559967    0.03789404862787    0.07715452863069
C         3.35164517887491   -1.14353233219741   -0.11614458346280
C         2.72756378519261   -2.52681917366268   -0.20144146511209
O         3.27813347944634   -3.43316309168053    0.75382128821705
C         4.75306344944661   -1.07548132363557   -0.32537422612559
C         5.50175237281923    0.10759074259865   -0.25923842016869
O         6.86367299904296    0.23731516330351   -0.38871089933580
C         7.69916225669801   -0.90110974611450   -0.56882239338522
C         8.22042474478758   -1.18455747575040    0.82194891617393
O         8.54178848602008   -2.27773142847502    1.28315633703952
C         4.74224498196687    1.26844515849899   -0.09452201380557
C         5.31357737329624    2.59188284690052   -0.04361833193662
C         5.62418610087589    3.74256685462678   -0.11724071803531
C         3.34392983432603    1.24129124164988    0.05161290531143
O         2.63569595620952    2.42055575147648    0.13771193326783
H         0.87667259717587   -0.64210248732285    1.02692178769692
H         0.68945100773472   -0.28960489745559   -0.73668965176238
H         0.79086212180393    1.05908813373683    0.57008710876401
H         2.94566058675318   -2.80455004812996   -1.22555464306505
H         1.64833606199915   -2.45868707792147   -0.00968989031965
H         2.94724914206557   -3.12460840582996    1.61457678761719
H         5.10880404217409   -2.09298893205371   -0.43243602807857
H         8.60628136504735   -0.66016924928910   -1.12739681447542
H         7.25126979443199   -1.75389782993909   -1.09065877124141
H         8.38102896125749   -0.23401737233135    1.35828837392671
H         5.88870270481294    4.75041554098391    0.11871322942733
H         3.26077181204248    3.11220326004943   -0.13709629765719
