28
 energy: -47.947784204020 gnorm: 0.126395811380 xtb: 6.4.1 (79825abcba525fcdf90b791dcacef51065a7a4e7)
C         1.01224679472734    0.15583286043812   -0.42751913642322
C         2.49686735650802    0.04907464193369   -0.15579774291975
C         3.17727818459631   -1.19187202973755   -0.12090975017749
C         2.43640861560835   -2.50296175377606    0.08498258650110
O         3.08238525900326   -3.60801708845219   -0.54642860966901
C         4.58752671499678   -1.29176430299943   -0.00428307046308
C         5.25735474200888   -0.09322137189778    0.27748603762698
O         6.60368401592359   -0.01498851687788    0.54148691359144
C         7.45674448075537   -1.14834548056154    0.66100077543020
C         8.74227411240602   -0.72538830358243   -0.01340476011583
O         9.83293349165634   -0.74815658052005    0.55312851767673
C         4.63243778731018    1.15273321377677    0.18452407659616
C         5.39541847287356    2.35620840876635    0.40814679989617
C         6.02954821028877    3.30561718128017    0.75810990630382
C         3.28017359844431    1.22942237823047   -0.19346842842097
O         2.59423720328567    2.42487747967996   -0.18629807553863
H         0.45049613506666   -0.00704610141648    0.49195889455820
H         0.68548345787434   -0.60246467016841   -1.15266204738413
H         0.71120791309381    1.07116450373107   -0.95045355185301
H         1.42701503418277   -2.34823568011118   -0.27653213375994
H         2.31758350295376   -2.74689813677694    1.14918123401578
H         3.05534484178165   -3.57662496227477   -1.51796029610767
H         4.92677089908919   -2.31944695955128    0.04172859324913
H         6.96463087402980   -1.94434123149902    0.09785093046801
H         7.63741246492003   -1.43594097292534    1.70254592226972
H         8.64063874976912   -0.16665242422118   -0.95916619240084
H         6.55273101319102    4.23707540175533    0.76633234504125
H         3.23003236966424    3.05337928561321    0.19497040427623
