28
 energy: -47.952077005195 gnorm: 0.117101043249 xtb: 6.4.1 (79825abcba525fcdf90b791dcacef51065a7a4e7)
C         1.16275952735643   -0.12804205318501   -0.45545370213491
C         2.65475512563970    0.08461840153434   -0.32109335491261
C         3.54172280843874   -1.01067434272813   -0.45431063379596
C         3.14223820262218   -2.35962068214449   -1.02962920451448
O         4.15609594146295   -3.02540402725074   -1.78191787067329
C         4.90218765242231   -0.89910378032932   -0.06821663053794
C         5.39850680420828    0.27552482030018    0.51357674258043
O         6.67856553273737    0.30585205839530    1.01252489534112
C         7.50069691311859   -0.85562739372714    1.05201160801183
C         8.07159672363093   -1.27151018645956   -0.28493152391030
O         8.56258395431673   -2.39172942144745   -0.40763700291558
C         4.54084749865431    1.37158330553327    0.63458196040450
C         5.00577558090487    2.50022920143485    1.40302161610200
C         5.20792986091868    3.44023875230922    2.11117936952831
C         3.21317016404116    1.28722626356067    0.17902212140599
O         2.34656277597975    2.35496672419132    0.08631294409158
H         0.93820613765544   -1.07904837029418   -0.93783940610849
H         0.76252018855431    0.62076273263596   -1.15310800777638
H         0.76227259257787   -0.17383090438163    0.56407090624668
H         2.27718494510898   -2.30468971022855   -1.67937831041797
H         2.87862046410093   -2.93932869404889   -0.13487368473938
H         3.97549071150812   -3.97947336360715   -1.72972667739479
H         5.55687982028386   -1.74327265654151   -0.24736018092360
H         6.98185245802059   -1.67853466198853    1.54854644278372
H         8.38898406127658   -0.53799150052346    1.60898715930903
H         7.84736776872764   -0.57103369922296   -1.10714456319020
H         5.51658903951729    4.21132880308213    2.78315549336390
H         2.67776284655267    3.20750040826063    0.41511149862505
