28
 energy: -47.955137172043 gnorm: 0.119962115339 xtb: 6.4.1 (79825abcba525fcdf90b791dcacef51065a7a4e7)
C         0.94824343867284    0.15544434575799   -0.38359815743576
C         2.43175658891756    0.04516653646496   -0.10727303468193
C         3.11352949729022   -1.19204863016242   -0.01448814305114
C         2.48422124323730   -2.57472348910089    0.03467477459967
O         3.27148456443840   -3.53449348631773   -0.66971945636668
C         4.51362519962531   -1.24415373273162    0.20776901895652
C         5.22454133201696   -0.04455970254178    0.34968798722856
O         6.57831059138048    0.01878631652591    0.57709826120636
C         7.44513144712750   -1.10867600925842    0.63989981657386
C         8.76791236051137   -0.73857392977800    0.00777867473961
O         9.90102845782138   -1.03567774619400    0.38032862065100
C         4.58504003757116    1.19489048483473    0.26989269361025
C         5.33646492627409    2.40569274900174    0.49309149413670
C         6.00493654547238    3.37859700991443    0.67357614439492
C         3.23166765570056    1.21492464633261   -0.11136813833487
O         2.58428262091987    2.38314474851875   -0.45170247495487
H         0.46922255734757    0.18135865587164    0.59487036765584
H         0.40326889848107   -0.63260639470183   -0.92174352615178
H         0.69704447538609    1.09015709525882   -0.89850395896736
H         1.51253498950690   -2.43959765914495   -0.42475453220679
H         2.36884680925395   -2.91077646989340    1.07385727218314
H         3.37488915394221   -3.24864622662850   -1.59340192529842
H         4.97387640753672   -2.20692433146776    0.39371776122849
H         7.06106364647382   -1.96688656684679    0.08412167129365
H         7.55460749095688   -1.43035583296455    1.68139176006949
H         8.63478170030166   -0.08511265623458   -0.87099593097899
H         6.59514280061354    4.14994301714983    1.11864263732663
H         3.31938244639909    3.01074194621715   -0.34989052544827
