28
 energy: -47.953485538201 gnorm: 0.120325598349 xtb: 6.4.1 (79825abcba525fcdf90b791dcacef51065a7a4e7)
C         1.20769952745017    0.02241429803168   -0.61669323305170
C         2.65985179358754   -0.01515700799844   -0.19340819993424
C         3.47585225787494   -1.17050295264594   -0.13472539304874
C         2.90105387565835   -2.51997624109342   -0.53317775178723
O         3.36216909412506   -2.79908570031428   -1.85476160467713
C         4.87175642979252   -1.07308453211088    0.09838902432815
C         5.50707638139840    0.13855417060808    0.40313280159110
O         6.77948999969746    0.34514864405797    0.87926476110214
C         7.51558872548324   -0.78239312617287    1.34111099777127
C         8.15122954024194   -1.62870257762773    0.26128550562224
O         8.51210391441544   -2.79400694989661    0.41245307633290
C         4.64571473749109    1.23820085612627    0.38315217481995
C         5.12439418765141    2.56446563356125    0.68710434240189
C         5.47537299718626    3.67399428113611    0.95493222000998
C         3.29081481476580    1.23784014020212    0.00682245274762
O         2.64918558806387    2.45717315356039   -0.02799099567542
H         0.85680403019013   -0.93253449240741   -1.00717801127751
H         1.09088557128122    0.89370846430710   -1.27610406093129
H         0.59271920729555    0.20828666162475    0.27165776632534
H         1.83410719099042   -2.65139528985957   -0.39952802300846
H         3.35730422256314   -3.22043495726357    0.17909771156449
H         3.15030764978728   -2.03087041582445   -2.41203216113326
H         5.37519498811409   -2.02919875376453    0.17408936667029
H         6.91386543975585   -1.35402694721379    2.05110159264442
H         8.35622786460497   -0.21208978964376    1.75129184456539
H         8.29860890913522   -1.14591697461595   -0.71962101263378
H         5.85524975042338    4.67253613291722    0.95810896584340
H         3.19187420586478    3.22172326253493    0.22807120956709
