28
 energy: -47.947483150239 gnorm: 0.123245386000 xtb: 6.4.1 (79825abcba525fcdf90b791dcacef51065a7a4e7)
C         1.47342234467014    0.20878989912263   -1.21600198818324
C         2.79943351254430    0.08016967778366   -0.49872988904447
C         3.72527331759227   -0.98197126663910   -0.63585019657656
C         3.52526655437476   -2.16853531482975   -1.56445059413527
O         3.47537451218059   -3.31942686509767   -0.72179251047465
C         5.03050754344574   -1.00445536931083   -0.08065721413199
C         5.44915730481008    0.03202648902845    0.76492324744361
O         6.71646254062340    0.18783642684660    1.27293905019211
C         7.65470849894974   -0.74509656046316    0.74774927837673
C         7.78909471210227   -0.77754499255003   -0.75796964513993
O         8.17674631076759   -1.76736482959610   -1.37522093789094
C         4.44426127070899    0.95327031125360    1.06998018676151
C         4.65357137037734    2.00928709374756    2.02993698262461
C         4.82453032467657    2.89603349974313    2.81123434851551
C         3.17676618593714    1.04519245698201    0.46799635036220
O         2.34225924677821    2.11522322055384    0.70946143644729
H         1.78357750226902    0.16522816845036   -2.25976411058113
H         1.01468206790159    1.13717508219017   -0.84819772256150
H         0.83090630509459   -0.65446111686525   -1.00650818739257
H         4.39526505952925   -2.07499721640005   -2.20309108909227
H         2.59745790762164   -2.30974583360035   -2.13486608421836
H         4.05296199215821   -3.27018337327457    0.05894960448093
H         5.65741205613534   -1.79806215884614   -0.46861897875641
H         7.51849829798492   -1.75887595444666    1.13066037274851
H         8.64736199308763   -0.36006188553916    1.00573323933577
H         7.50112410045782    0.17238233472364   -1.23931278246465
H         5.19033153192714    3.69971883716759    3.41263407345649
H         2.89389567689541    2.85934859333556    1.00372380832200
