28
 energy: -47.952178932098 gnorm: 0.121997228761 xtb: 6.4.1 (79825abcba525fcdf90b791dcacef51065a7a4e7)
C         1.14313101063011    0.08426022469293    0.00164443542685
C         2.64833551307825    0.02280258891943    0.14274872715879
C         3.41267070189364   -1.16594911675135    0.06037266639368
C         2.62373338935107   -2.46509792845054    0.05528182084438
O         3.36783809364248   -3.68251949333353    0.09142230351868
C         4.81694275918058   -1.07219646620131    0.23816915518489
C         5.41823923200634    0.19134557005917    0.15771636057456
O         6.77493433683892    0.34819001346800    0.00540885898026
C         7.55828620491503   -0.77836921069371   -0.37369257495551
C         8.17076067894610   -1.36566321277456    0.87781164286672
O         9.03952100483657   -2.23498107752423    0.85418587509739
C         4.66653533571348    1.36403472762580    0.05138034689335
C         5.30558084720142    2.65035393768845   -0.08091822905859
C         5.83488885001850    3.71661167059682   -0.17525379857200
C         3.26278927663809    1.29275274188571    0.00902619543906
O         2.37688616781092    2.34846397486114   -0.00893269258633
H         0.61389204631270   -0.84241830917575   -0.21905042466252
H         0.99084194960641    0.81941407290779   -0.80083829453419
H         0.76866222025751    0.52959872049758    0.93081803799970
H         2.05388634005433   -2.43664413821479   -0.86557276939373
H         1.88658741188097   -2.43398067595131    0.86878698527653
H         3.84672542837420   -3.81710704405896   -0.74412756283315
H         5.39033616355161   -1.99118893071585    0.23530785398866
H         8.30134160180687   -0.41735415281535   -1.08815712335934
H         7.03394154597765   -1.59397958756937   -0.88360509038836
H         7.84114306862854   -0.86610114224188    1.80451018356303
H         6.13351897485271    4.64978178174257   -0.60118320822179
H         2.88082552757619    3.17018920949720    0.11527851357297
