28
 energy: -47.955074617212 gnorm: 0.107276308444 xtb: 6.4.1 (79825abcba525fcdf90b791dcacef51065a7a4e7)
C         1.11650347977684   -0.10302581336971   -0.52687828636744
C         2.59697693056852   -0.08251586196064   -0.21526033961878
C         3.34486046848639   -1.28197025304010   -0.29338898086294
C         2.65843295064984   -2.60291440000454   -0.60024311453622
O         2.25073717998294   -3.10152649985514    0.67344576166463
C         4.71444354426315   -1.29919927094959    0.07583523477374
C         5.33828225557366   -0.09745042247465    0.43804173285571
O         6.67814774687237    0.02776337256174    0.71643233852094
C         7.54042810771693   -0.99012875460405    0.21958032022185
C         8.97694303156408   -0.56685650774961    0.01085200549069
O         9.94180951223935   -1.32103290173169    0.11699752401724
C         4.63359095320430    1.10634699805691    0.36157016948515
C         5.27732090124683    2.38868616355531    0.50893782122945
C         5.67477194702368    3.51332322419691    0.56546985654418
C         3.27883791760935    1.14327233824601   -0.01347481027451
O         2.62148226543705    2.35428324695823   -0.04524228223981
H         0.67388352256403   -1.07970534620161   -0.33266739456129
H         0.89069672372049    0.12156807635690   -1.57863422634140
H         0.64574252799037    0.64244802012011    0.12471186250302
H         3.40622100648396   -3.25010290006287   -1.04236133698076
H         1.80038021129860   -2.49774808735279   -1.27761204728747
H         1.67048740973035   -2.45081797663248    1.10411859649776
H         5.11956618824162   -2.28254800726698    0.28134981438103
H         7.14054692928079   -1.44801334504869   -0.68781128741821
H         7.44891124927772   -1.77250959030378    0.98094309586902
H         9.12455294015546    0.50534942494815   -0.20260986106911
H         5.97542640094710    4.51664361302618    0.77608174563023
H         3.24401572398202    3.09005674687729   -0.17056231783426
