28
 energy: -47.956500889870 gnorm: 0.109927394581 xtb: 6.4.1 (79825abcba525fcdf90b791dcacef51065a7a4e7)
C         1.17822107519490   -0.07568566372922   -0.44427263631143
C         2.66951548811500   -0.04983576728659   -0.18990911819072
C         3.40390875588376   -1.25517487727030   -0.08059825963889
C         2.75608715021327   -2.55430288790687   -0.53096389849850
O         2.55533770696714   -2.51429391440258   -1.94348368982527
C         4.75787606423838   -1.15757965516327    0.33126197753593
C         5.41524628200682    0.05609698139542    0.57502825836068
O         6.70134428515858    0.27255799770935    1.00805933689243
C         7.42804932781169   -0.85822335922593    1.47680984382201
C         8.33736374711210   -1.43881933824415    0.41739602970157
O         9.17600591231696   -2.29570102773223    0.68841137947944
C         4.69388005968791    1.21705469620097    0.28628280856050
C         5.38453799519302    2.48274992814247    0.32509539083537
C         5.98205865920939    3.50219098295124    0.15281444810019
C         3.31259508643584    1.19475832075146    0.02373242236731
O         2.66415050623292    2.39756358645247   -0.15641243760289
H         0.76897861078318    0.63686801194395   -1.16003870780431
H         0.77885582217209    0.38285129183084    0.47108135283624
H         0.77588321445396   -1.05758956264898   -0.71978271959710
H         1.82148773910632   -2.73354176622050   -0.01336771009119
H         3.45794537818079   -3.37561508845439   -0.33351915863585
H         2.39965792791674   -1.58045539753740   -2.16551949673770
H         5.37709366719888   -2.04604244222637    0.35447349212368
H         6.68975380261754   -1.61505505627105    1.75075926655241
H         7.95628567536019   -0.51958939766087    2.37484201741777
H         8.34653048132516   -0.92945354493052   -0.56109396831048
H         6.49287102237352    4.43979284589692    0.11572331742989
H         3.35208947678186    3.08306517614595   -0.11842285243235
