28
 energy: -47.945563653917 gnorm: 0.122619366867 xtb: 6.4.1 (79825abcba525fcdf90b791dcacef51065a7a4e7)
C         1.64334607093071    0.19215287421323   -1.44818710806118
C         2.88139719254683    0.06427988907727   -0.58783488637074
C         3.37177841086935   -1.17176632769952   -0.10220057040899
C         2.82946806066717   -2.53603823722888   -0.49577045302691
O         3.36613209701675   -3.62051607368458    0.26120559817707
C         4.59454615803980   -1.18568969425388    0.61684485279188
C         5.23249180114775    0.01528327525974    0.95634132646458
O         6.50272613713994    0.13901929823361    1.46586412697363
C         7.46012130700516   -0.82065158837271    1.03121483278289
C         7.54959909328841   -1.02591542428612   -0.46416555804952
O         8.26998016582417   -1.80996883195352   -1.07843552599005
C         4.58114546428329    1.22344569828815    0.69623082398323
C         5.34349544948302    2.41561068452739    0.97563081054701
C         5.85220158150278    3.48928992657102    1.09564199665296
C         3.44685955025077    1.28143603867836   -0.13287144742659
O         2.95976300341185    2.50719503777817   -0.53277752447374
H         1.56937552466158   -0.37029304940500   -2.37862578976981
H         1.52016428370568    1.26009060431629   -1.67612770367156
H         0.79186156241607   -0.20227650692982   -0.88133931196903
H         3.21252696375292   -2.78220050539292   -1.47871422765278
H         1.73449468155546   -2.54887787347323   -0.57950552676978
H         3.26414608963245   -3.29971707537536    1.17349794460723
H         5.08823223888592   -2.10364080737087    0.91176032992303
H         7.26749843312310   -1.81964840089416    1.42848625329569
H         8.39597582769760   -0.33420445441014    1.32738013465338
H         6.88123977484874   -0.31513846997433   -0.97901714675645
H         6.56437932376520    4.11369111129619    1.58993776347570
H         3.52058532112970    3.02796312698841    0.06630059756371
