28
 energy: -47.950175266082 gnorm: 0.112571743423 xtb: 6.4.1 (79825abcba525fcdf90b791dcacef51065a7a4e7)
C         1.17676654182106    0.10502253732184   -0.54236413665157
C         2.67665744187377    0.00350492577026   -0.37104665180965
C         3.43238112874081   -1.18091282702214   -0.54471655489685
C         2.77175430601297   -2.51018323622453   -0.87159294243377
O         2.10346430722216   -3.19175041475087    0.18952341240139
C         4.81245369739918   -1.21250304651022   -0.21793968868161
C         5.37357615756940   -0.11015790155646    0.44126102790058
O         6.68387597883302   -0.21827226604875    0.84106747686536
C         7.54687068626489   -0.99368432698684    0.01616138927206
C         8.93002508928402   -0.44379463702683   -0.24993498616196
O         9.78670034032448   -1.15925054493727   -0.76495595195804
C         4.67458662466944    1.08879477719347    0.60092441774044
C         5.28789594662441    2.21676246081920    1.25822201889429
C         5.55631551231713    3.23934512612054    1.81342247863309
C         3.33129722885159    1.12963666250963    0.18705984113015
O         2.48832193823744    2.21215269546444    0.31830362215460
H         0.85342950103404    1.14466454270781   -0.58852580051933
H         0.68755308586511   -0.31816696732752    0.34600658189243
H         0.71969369924621   -0.44454957047701   -1.37361126085416
H         3.51880353016455   -3.21038680749092   -1.22534553895086
H         1.96899457111950   -2.39621980373634   -1.61235761844228
H         1.93709932127079   -2.53996707095402    0.89172825233995
H         5.31281514803701   -2.17256335323144   -0.25340881382157
H         7.03342325427068   -0.94774540008213   -0.94674262773382
H         7.61343566513498   -2.06178343569066    0.25047270953087
H         9.14435376462174    0.59807844465090    0.04254394184098
H         5.92001082088598    4.19950339265237    2.10875991987125
H         2.89132237722208    2.89680308802396    0.87817876151159
