28
 energy: -47.947480555265 gnorm: 0.126556521068 xtb: 6.4.1 (79825abcba525fcdf90b791dcacef51065a7a4e7)
C         1.48693448909469    0.12548229628420   -1.04064979080120
C         2.87799459515814    0.03165784684392   -0.45287704132254
C         3.49721721905407   -1.23511345733134   -0.32647088713379
C         2.91654889750672   -2.57973860956123   -0.73272589822760
O         4.06434656477281   -3.36379565260533   -1.05665226238816
C         4.71232042646429   -1.21298477010170    0.40525015393262
C         5.31251798787553   -0.04410100113338    0.89314584008907
O         6.39068502539400   -0.19047547083672    1.73252043424082
C         7.54538613660886   -0.88921527968362    1.27983759389654
C         7.54404026408535   -0.77421400864513   -0.22783442964941
O         7.44822480230480   -1.73609792398979   -0.98718610161097
C         4.70481694331131    1.20318532391826    0.73022803562406
C         5.22597393943062    2.46386434921231    1.19882483849326
C         5.66624384501602    3.50907667542830    1.57254306642452
C         3.53505360164559    1.22083976002655   -0.04997709479147
O         2.84748006586273    2.36947445482514   -0.37793139554156
H         1.37660961932902    0.12206822811387   -2.12478537864758
H         1.16649649040889    1.10409937733687   -0.65691841385490
H         0.89466025782840   -0.69821298606102   -0.62513306290072
H         2.28544669440421   -2.49319331839931   -1.60892700116714
H         2.35062558822578   -3.01422862133531    0.10219467674048
H         4.50159157106040   -2.95712729642150   -1.82413393740864
H         5.33847923218846   -2.09204296461137    0.49753872801861
H         7.50796594533507   -1.92225620675843    1.63246906908006
H         8.42691348543260   -0.33734208848831    1.62409606859035
H         7.37218912401006    0.25666200654365   -0.58102282685149
H         5.91192366728225    4.42926870109618    2.05657852667656
H         3.35255137071082    3.14295192161092   -0.07585317792844
