28
 energy: -47.947152071506 gnorm: 0.123304775317 xtb: 6.4.1 (79825abcba525fcdf90b791dcacef51065a7a4e7)
C         1.28606928891755   -0.11964951276249   -0.46390544704704
C         2.75834142278766   -0.10762265053848   -0.11519619932634
C         3.70433660341892   -1.12792606867717   -0.37634507076820
C         3.32860105718457   -2.49406616158077   -0.92654472699401
O         2.36800175560375   -3.19820489802654   -0.14006470202974
C         5.10683536976217   -0.95611175962831   -0.25041575659287
C         5.60829492623574    0.28436205807458    0.16711457238097
O         6.89436724559037    0.58899212374459    0.54346263090741
C         7.75656141437010   -0.48544529398966    0.90220930821672
C         8.04447475548875   -1.52322276621491   -0.15912280493786
O         7.94215089510202   -2.72950664367308    0.05400922881910
C         4.73570741775765    1.35651708119785    0.36870967652477
C         5.12968086176738    2.69322253188246    0.74086911296291
C         5.71326141068630    3.73443121170582    0.77678492030615
C         3.35341114553102    1.12286107881263    0.25898333479508
O         2.41263017061295    2.11088917963055    0.45495444226046
H         1.04221774858278   -0.89358704102624   -1.19129140539355
H         1.09076490146202    0.88962906698697   -0.85227976253337
H         0.61840431429064   -0.36202560978878    0.37119582437541
H         4.09926989742645   -3.23305811433973   -1.10948973071508
H         2.84548028621120   -2.43665090708419   -1.91114664288993
H         1.81338936721247   -2.54089140931398    0.31373541211414
H         5.76317061014563   -1.78155885272185   -0.49779496211857
H         7.35605293141486   -0.93706368232957    1.81246013654359
H         8.75214521819991   -0.05091951982516    1.04422558990866
H         8.47447801845512   -1.14052866634452   -1.10019805950527
H         5.89911212953216    4.72081097559935    1.14273128910158
H         2.75953518152709    2.85685626685044    0.97245389088174
