28
 energy: -47.953094898324 gnorm: 0.113412441775 xtb: 6.4.1 (79825abcba525fcdf90b791dcacef51065a7a4e7)
C         1.11271910425887    0.11989875135071    0.19668258669134
C         2.62122371757958    0.00288804302460    0.18958622430500
C         3.40225369990460   -1.17757415040171    0.21460349083512
C         2.99378197641848   -2.63393390581666    0.36427891608784
O         3.62338500374012   -3.58079306278371   -0.49837453303908
C         4.81573579407609   -1.10101819787526    0.12192817870491
C         5.46040686715417    0.08984384647441   -0.23975590762594
O         6.79970886637830    0.31389735088332   -0.45068135079558
C         7.72624409304822   -0.75027831793099   -0.26211743601245
C         7.92582716492758   -1.14105085297487    1.18486751679248
O         8.15024679818195   -2.29210424708251    1.55328052115613
C         4.70233541091294    1.26324742787985   -0.23555149316636
C         5.32467263888769    2.56098908600107   -0.33074700822728
C         5.49260829636100    3.74323666452097   -0.33849404879363
C         3.31244016003456    1.22100973254211   -0.02630240385854
O         2.59149750212207    2.39494535722490   -0.06860947584128
H         0.44619096129186   -0.59814454877695    0.67384844060804
H         0.80476060333817    0.29942000051769   -0.84281505492376
H         0.92536850490242    1.07459877564975    0.70201856427484
H         1.92936884733390   -2.79179674813235    0.23932908504022
H         3.36523117215434   -2.84548878710994    1.37591776344044
H         3.26579334122589   -3.36156263993515   -1.37567533252605
H         5.36011597448239   -2.01598126962573    0.32149804661487
H         8.65229599806188   -0.32757637424434   -0.65793775175636
H         7.42416706199115   -1.58518290980770   -0.90387453345540
H         7.90979298529010   -0.28782093749258    1.88395394367015
H         5.91766184170440    4.69126794391055   -0.58742869721329
H         3.23312057533649    3.12494516921752   -0.07459038778118
