28
 energy: -47.947473877481 gnorm: 0.124875887555 xtb: 6.4.1 (79825abcba525fcdf90b791dcacef51065a7a4e7)
C         1.04687528108498    0.20853534008795    0.14247277742793
C         2.52866841042182    0.03447956466181   -0.10916539028229
C         3.18707408358435   -1.21707465130563   -0.17427094149179
C         2.40782811247296   -2.52053413358391   -0.11098802144218
O         3.08126558986694   -3.67867019311623   -0.60324409859687
C         4.60546492446151   -1.19839201523797   -0.18839697454374
C         5.38926055956891   -0.05024005479710   -0.00956726262427
O         6.71918947181833   -0.10539048324115   -0.35113259819534
C         7.56979806133115   -1.18570619996870    0.01748198172404
C         8.70793319971219   -0.60102464775838    0.82314811748466
O         9.39329547308317   -1.28617831158550    1.57936187159498
C         4.71459500794734    1.17063233473938    0.06700273993322
C         5.33079241341181    2.47206108042147    0.15116442186233
C         5.69420225652792    3.59339115496972    0.34227663481301
C         3.30879787159264    1.20378905811524    0.07061747041308
O         2.61207715399492    2.37592859295339   -0.13023625302449
H         0.85049232861088   -0.36074034974377    1.05070850616451
H         0.44323251945824   -0.17372087514222   -0.69246271113528
H         0.80500007459052    1.27099502304768    0.26327277565269
H         1.62229531954782   -2.43462815555244   -0.85197847242518
H         2.01258874568308   -2.62839682855137    0.90797940162294
H         3.83582704678149   -3.81523658308425   -0.00526659299518
H         5.12993252047294   -2.08841424566015   -0.51417222101106
H         7.90963086186733   -1.58531258605942   -0.94051133228768
H         7.06408479698040   -1.99368774836507    0.55747114119766
H         8.86561190294552    0.48005918442992    0.67025799101471
H         6.12565502074918    4.56541280354773    0.24017520069426
H         3.20360103569916    3.12423619828218   -0.31665215639776
