28
 energy: -47.953747244321 gnorm: 0.112114015904 xtb: 6.4.1 (79825abcba525fcdf90b791dcacef51065a7a4e7)
C         1.03767903057389   -0.22091832551567    0.31842080429915
C         2.49977107923980    0.02446426315830    0.01609272192491
C         3.25019982266870   -0.99437509973882   -0.61868894894763
C         2.66509469005635   -2.31183393918832   -1.10054975009788
O         2.93412166487202   -3.39570151186524   -0.21174786600228
C         4.66096311784738   -0.90997360267857   -0.74118173773824
C         5.34136023586488    0.20381871635628   -0.23020715592282
O         6.69898082860196    0.22277883804147   -0.01824912905426
C         7.35410888850605   -1.03591398787674    0.09573916179286
C         8.78603461862818   -0.91444970737334    0.56599139801459
O         9.58515100264050   -1.83645254502698    0.41652567263555
C         4.59857557987179    1.30432704184004    0.20421010532802
C         5.28385401391032    2.51689156365590    0.57915005247721
C         5.72849399358527    3.60581808748948    0.78531999454854
C         3.20800836199959    1.19581744025799    0.38288995733502
O         2.49074833904233    2.19789747166979    1.00017978206718
H         0.47202097309242    0.68955597626363    0.51489145031417
H         0.99577050016756   -0.83184061131188    1.23091151840111
H         0.65613951890433   -0.77437265454179   -0.54762350148273
H         2.96364122864946   -2.50921842831226   -2.12300648712408
H         1.56996801455420   -2.24003010754316   -1.05950214220338
H         3.89110818373381   -3.48121979307111   -0.06190162955771
H         5.12915415952523   -1.77150308456014   -1.20150710176646
H         7.33235667590468   -1.63500210311937   -0.81724663041811
H         6.76309012070289   -1.56455921275118    0.85164883023760
H         9.15791359959021    0.07649020788116    0.87699674273530
H         6.35579748993299    4.46832325085257    0.84838697577585
H         3.19992802631495    2.73984124877368    1.38485728494056
