28
 energy: -47.954847070113 gnorm: 0.108172070553 xtb: 6.4.1 (79825abcba525fcdf90b791dcacef51065a7a4e7)
C         1.24544102756405   -0.01946806931917   -0.63416906957769
C         2.69100932165850   -0.04521321510602   -0.18807768072291
C         3.43744873875429   -1.24139621380403   -0.06119538483903
C         2.84281144632681   -2.57741531418849   -0.47555642530273
O         2.75513100185083   -2.53100161162562   -1.89937914036443
C         4.79274678394793   -1.16034519348529    0.34987526973732
C         5.37964666873756    0.08572849160775    0.60952400587285
O         6.63662218455558    0.30690800830204    1.11894674662074
C         7.41345549885264   -0.81930860927383    1.51221492784809
C         8.28317295617679   -1.32437753057922    0.38314497378153
O         8.83437774020676   -2.42095213763211    0.45180098341453
C         4.66811435267148    1.25666545090382    0.33713758993909
C         5.41722597782484    2.48926645971741    0.34220868979271
C         6.09590752236719    3.43928532223381    0.09155507011409
C         3.27491938974679    1.19956082181622    0.15513527758881
O         2.53587097749005    2.35875405023084    0.05638537348467
H         0.97932507265876   -0.99430437778577   -1.04210249304031
H         1.08563013784254    0.69286742341422   -1.45554613654058
H         0.66513243100276    0.26495995765413    0.25141517968180
H         1.83415433159304   -2.59728861729863   -0.08093720587146
H         3.36235926603540   -3.50546973453085   -0.20182630967824
H         2.42489382477629   -1.64429453483980   -2.12362105325995
H         5.41865857300675   -2.03928493842494    0.44492623902751
H         6.80224310925713   -1.66675659212990    1.83029371614712
H         8.00663737186213   -0.43045109019981    2.34713616894406
H         8.31522867061020   -0.74308224927116   -0.55389741757297
H         6.78916474082830    4.21674561685782   -0.14583108424017
H         3.20502417542103    3.05739682338600   -0.03714504094341
