28
 energy: -47.953142848283 gnorm: 0.126760084584 xtb: 6.4.1 (79825abcba525fcdf90b791dcacef51065a7a4e7)
C         0.97662547901216    0.07758652102666    0.03973333506562
C         2.48666738638191   -0.01520315146260    0.06190441793420
C         3.17265851640913   -1.25352195948587    0.07226810338657
C         2.46196756962968   -2.59250487940440   -0.03854144532762
O         3.20197027417675   -3.35767849432345   -0.98934034953968
C         4.58632332988931   -1.25975359646554    0.19014145831223
C         5.30747511247766   -0.05862247953391    0.23248215676862
O         6.65407663827755    0.06480183383133    0.47712503745507
C         7.38463712185961   -1.14649942927698    0.31736156012538
C         8.76048509970268   -0.65662140788508    0.70897859893137
O         9.82239435479300   -1.22536425576089    0.46424090385811
C         4.63070689488124    1.15672203847889    0.10407477803749
C         5.37186442036328    2.39380220990467    0.07548491489141
C         6.01748071910284    3.39785498369494    0.04340148574098
C         3.22518971199392    1.19409550698142    0.08165422233966
O         2.55114025457691    2.38653501455915   -0.07137650346596
H         0.51694340478064    0.75932052056389    0.75490069296976
H         0.39537344542023   -0.85178437393012   -0.03796783990649
H         0.67912126504443    0.55439266556531   -0.90157637757493
H         1.42447185205184   -2.44972957670404   -0.31553657442281
H         2.46041180097129   -2.99652446558953    0.98268765994887
H         2.98953756105904   -3.02473415022621   -1.87794086434303
H         5.13811439629007   -2.18991955752746    0.12969940149068
H         7.33304429462640   -1.51034389855963   -0.71117048576036
H         7.18417482756602   -1.92763916136327    1.05884923462066
H         8.65228150393122    0.35084850795343    1.14518562411984
H         6.46677734623352    4.36682604697867    0.01830384258600
H         3.26066776001034    3.04907162133638   -0.02413636549969
