28
 energy: -47.957212481076 gnorm: 0.119617382759 xtb: 6.4.1 (79825abcba525fcdf90b791dcacef51065a7a4e7)
C         1.52800317214531   -0.12560427472878   -1.17092731709378
C         2.76081686124818   -0.02303028520417   -0.29973444630230
C         3.46743915372313   -1.18985562102040    0.07885276374957
C         2.78143914333129   -2.52916352741068   -0.13537595731009
O         2.72926912077130   -2.84469012863240   -1.52635923122317
C         4.81096545460081   -1.08047032000606    0.52084041498794
C         5.44765223277661    0.13964405713598    0.78639535000139
O         6.66981054574118    0.32236693549050    1.38752824708197
C         7.53843679209194   -0.80474379367636    1.42757297112341
C         7.72574810992652   -1.35332434715737    0.03105018962368
O         8.54217943593127   -2.22112932113275   -0.27122559070010
C         4.68447198452034    1.29635351160947    0.60991558558854
C         5.27647512501340    2.61146635404054    0.63249195979585
C         5.81744924356969    3.66638521189702    0.48943628461012
C         3.38223896469618    1.18941098846741    0.09017482537236
O         2.75494588156792    2.36373472682123   -0.26639241848970
H         0.71422966437241   -0.51288880616631   -0.55829645046885
H         1.73954221958326   -0.82313630760822   -1.99331527832920
H         1.29380358285456    0.89457542460958   -1.49696529667080
H         1.77235412679901   -2.48407661515880    0.25606120323323
H         3.38187543047829   -3.35037159661230    0.27843160385920
H         3.60292742858113   -3.03269430852886   -1.90972075423588
H         5.30952045335928   -2.01146090224246    0.76174451128632
H         7.08499132184301   -1.63772066411729    1.96929201605736
H         8.47141703331195   -0.49046011139503    1.90813724320539
H         7.13427246981922   -0.84833842677726   -0.75133462862725
H         6.22219710540005    4.64966850954060    0.59304803742050
H         3.38765002227973    3.08799552615753   -0.12586687037542
