28
 energy: -47.951948083071 gnorm: 0.116185523882 xtb: 6.4.1 (79825abcba525fcdf90b791dcacef51065a7a4e7)
C         1.17299816585124    0.11669008720132   -0.34185092354869
C         2.68094403688912    0.00003373102371   -0.29920595913002
C         3.42688889757744   -1.18782890399900   -0.10770312700812
C         2.90515394634385   -2.56791021662659   -0.47294804090021
O         3.02470071416654   -2.80417475326324   -1.87544611821890
C         4.77927909690274   -1.10060828849378    0.31159924781783
C         5.37630853910531    0.12056445525592    0.65344945846468
O         6.55803402689804    0.25600056848149    1.34163641989934
C         7.47050466903968   -0.83123835368780    1.45027611252390
C         7.98367600293592   -1.49696909443500    0.19339115657147
O         8.87463607434876   -2.32631779492626    0.36481785929331
C         4.67543273750457    1.26310646835084    0.25982928965018
C         5.41927284640840    2.48391632151060    0.45172615828968
C         6.01275782757581    3.52004600678945    0.46523837595006
C         3.32156426106028    1.25131453244654   -0.12001160946575
O         2.67542294492209    2.42964562006083   -0.42613299553003
H         0.76529334312177   -0.60162558777886   -1.05271840630156
H         0.77567990241185    1.10091381213921   -0.62656748479334
H         0.77424380637074   -0.11243528679471    0.65334421107995
H         1.89325120238964   -2.79291632613744   -0.15841102268479
H         3.60830606418277   -3.32868464460195   -0.10833523520563
H         2.48842618019857   -2.12956467475160   -2.32589182488109
H         5.23228433483037   -2.01359718820335    0.67844099387716
H         6.97009671205082   -1.54365019075235    2.10980930827011
H         8.30089388105224   -0.43666180214021    2.04603737699518
H         7.50149575350330   -1.23104784071918   -0.76252113497241
H         6.73305834807855    4.30758477599531    0.41673969827972
H         3.31451702533130    3.16174134826966   -0.41163247417050
