28
 energy: -47.956564892438 gnorm: 0.107746389222 xtb: 6.4.1 (79825abcba525fcdf90b791dcacef51065a7a4e7)
C         1.22675148639182   -0.08474083486904   -0.51585085443432
C         2.72589626484550   -0.01417165740501   -0.32372337874354
C         3.53185464841324   -1.16103010514568   -0.12555301868236
C         3.01641884294477   -2.56042920048609   -0.41922585655309
O         2.64544855508083   -2.74250935288053   -1.78536680043398
C         4.90637317337458   -1.02757651397295    0.19890056501268
C         5.46483894957534    0.22511167358133    0.48778958332291
O         6.72708288669041    0.38696190912203    1.00640707957641
C         7.36841265266864   -0.82355643402550    1.39349260942910
C         8.04251290043426   -1.56342499532702    0.26014120763909
O         8.83161957170118   -2.50457146831462    0.31083842256726
C         4.65633043003443    1.35627455282035    0.35232562030986
C         5.31836022260158    2.62635802553063    0.52292377040470
C         5.80049158625417    3.71021454100715    0.65994976739475
C         3.30737266220033    1.24399372309113   -0.02857325841741
O         2.57941355609222    2.40913786219238   -0.13897129715204
H         0.80406734998744    0.91805680560156   -0.57301922000618
H         0.80131107503675   -0.57412732048211    0.37134866657851
H         0.89666319643777   -0.63129199087881   -1.40705250494062
H         2.15563962046241   -2.88657689868677    0.15190920479192
H         3.85019477368291   -3.24758601163731   -0.22230875868900
H         3.50582844628773   -2.89473569412333   -2.21217361028829
H         5.41165678287203   -1.98566855296443    0.20803599953910
H         6.73044416607870   -1.49579246762268    1.97143526310801
H         8.08646903813707   -0.58758175348534    2.18651175233895
H         7.89004522934776   -1.15118854242546   -0.75168631346837
H         6.02623440140757    4.75094132975891    0.57433315056061
H         3.17298091271304    3.12147200847234    0.15235931017546
