28
 energy: -47.951854761788 gnorm: 0.119121681293 xtb: 6.4.1 (79825abcba525fcdf90b791dcacef51065a7a4e7)
C         0.94837907768418    0.10168792561704    0.11262088929771
C         2.44952373971894    0.05825520703054   -0.07178720025781
C         3.16125036570632   -1.11959155432035   -0.40382173287121
C         2.42754855016426   -2.39812245264849   -0.77432952734184
O         2.94526563371659   -3.58289737579668   -0.16985403677273
C         4.56477805320552   -1.12249511249618   -0.60993521235251
C         5.33483958617918    0.00898359178068   -0.30772706253681
O         6.69153795770719    0.12254743809127   -0.49452145387442
C         7.50801447742177   -1.03042564048996   -0.31984201738877
C         8.73137279645273   -0.49419004162633    0.38878188944193
O         9.62650317968122   -1.17581051797785    0.88390950386687
C         4.67456111173181    1.09393308268134    0.27406578187359
C         5.44862571574525    2.21639762283965    0.74459374209522
C         5.90574926568029    3.14611595409614    1.33842336189292
C         3.27187677863478    1.12515127857046    0.36830004263783
O         2.60414573836349    2.27777550761898    0.72222899489849
H         0.63593818307608    0.61486046386450    1.02177865370591
H         0.47657158883387   -0.88833911465762    0.18237628682138
H         0.42846794621469    0.66479009000400   -0.67129568481905
H         2.42967368012920   -2.57052488015559   -1.84380666028414
H         1.36688847816908   -2.42573588299034   -0.49081438222159
H         3.90231962582723   -3.41076482453026   -0.16693684689671
H         5.01412821684295   -2.09228540409880   -0.78579470531542
H         7.88849530014765   -1.48445789718067   -1.23745404776324
H         7.08520659341054   -1.85706364623925    0.26159712992552
H         8.72485521158102    0.59969038818756    0.53148207718856
H         6.62316800512918    3.87141814076560    1.65567620971612
H         3.24023506334845    2.96884769027648    0.97207949534885
