28
 energy: -47.948751457568 gnorm: 0.117250714642 xtb: 6.4.1 (79825abcba525fcdf90b791dcacef51065a7a4e7)
C         1.00993362143106    0.22052024817153   -0.01360219648247
C         2.50559728068248   -0.00491596365047    0.02508573509577
C         3.22281374402647   -1.21990372367848   -0.09123266640789
C         2.48276212229509   -2.53799936886653    0.06745912538746
O         3.43458522972676   -3.60049373524307    0.02000696521543
C         4.61877847487403   -1.18106299349921   -0.34054173126180
C         5.33876187252710    0.01374264649057   -0.20404279661803
O         6.68836795155268    0.26181370320476   -0.27782315037175
C         7.62074259405784   -0.81375769922260   -0.29563921092269
C         8.38439152506667   -1.02814738678476    0.99167559159298
O         9.39051028452612   -1.72696116888444    1.09365877084502
C         4.64355088684935    1.19593037299653    0.06181401536253
C         5.47180799562398    2.37611801747462    0.10239116002478
C         5.72276354169691    3.54057977160515    0.01859451921933
C         3.23762515614846    1.20690920355832    0.08691986768331
O         2.64325706609998    2.43732045015475    0.26716355655727
H         0.42281028221339   -0.30355744190123    0.74016299216722
H         0.57282289954001    0.02598133631291   -1.00290017352212
H         0.84098885438458    1.27344889317772    0.24079073489006
H         1.69262675862310   -2.70767720643131   -0.65393118717089
H         2.06040511662227   -2.49489055701107    1.08032600647688
H         3.60187876261031   -3.72522887339371   -0.92975326128008
H         5.06552331102321   -2.16784644927491   -0.33696478834739
H         8.29912704263358   -0.73035812619097   -1.14755577660937
H         7.03657891456303   -1.69855721511015   -0.57141265839374
H         7.94629504688533   -0.47600456804055    1.84031567951902
H         6.25475643421797    4.44098125344093    0.23691313360918
H         3.36652572205766    3.08641801521144    0.28021985166492
