28
 energy: -47.945912611084 gnorm: 0.121226977949 xtb: 6.4.1 (79825abcba525fcdf90b791dcacef51065a7a4e7)
C         1.38970038759477   -0.16592983976162    0.63324625400753
C         2.80066240177780   -0.02069526928608    0.10653841681401
C         3.53275272149408   -1.17097948741544   -0.27426952269663
C         2.82876177521813   -2.51733580215967   -0.23003093727356
O         3.06172084833418   -3.12178903434851    1.04177076826684
C         4.82394652279715   -1.08486219075357   -0.85546100091051
C         5.53353704058327    0.09550665044111   -0.59511649306062
O         6.88548581748569    0.29663381063944   -0.73724926409791
C         7.77212520834997   -0.80498032393018   -0.57350977855177
C         7.47181834166522   -1.41900725075707    0.77522620422786
O         8.27418555377799   -1.90433483290231    1.57000933505179
C         4.85835287508404    1.26547682103554   -0.23893944938425
C         5.43414485090569    2.56960081536331   -0.01934119933560
C         5.67397560503662    3.73795302828115    0.03902000016271
C         3.46165349885665    1.21844612174216   -0.08274416951031
O         2.72736477619557    2.37602951547202    0.06041241456404
H         1.35041586914773   -0.84609128510266    1.48375806500015
H         0.65473731768014   -0.48729532006435   -0.11786969843403
H         1.06964884726762    0.79172719398912    1.06030227688517
H         3.14301032717367   -3.33750439694987   -0.86412854071513
H         1.74921864123265   -2.37480577366088   -0.37291179703539
H         2.55134019108193   -2.73135493449181    1.77160860389585
H         5.37432909640938   -1.97108503002412   -1.14704877933601
H         8.77399154287378   -0.37512730360875   -0.63994030265383
H         7.74054828001307   -1.51774406635935   -1.40485755542067
H         6.41051055880162   -1.34597601747411    1.06724066502364
H         5.92346270641948    4.67908359590540    0.47882872120465
H         3.28154500770303    3.13411598131595    0.31102135929359
