28
 energy: -47.950484531332 gnorm: 0.121500591552 xtb: 6.4.1 (79825abcba525fcdf90b791dcacef51065a7a4e7)
C         1.37255611636514    0.03437166997071   -0.99161514705002
C         2.75659238133590    0.07961060609684   -0.38192252338130
C         3.54343169541142   -1.09027283430578   -0.50991211234870
C         3.16736417365317   -2.35922746163893   -1.25728283652362
O         4.12031685616262   -3.41501977478840   -1.13771282446617
C         4.87299455749739   -0.98730341091042   -0.02613421473115
C         5.38239780847047    0.13521461880595    0.64097160948850
O         6.63606074185751    0.25417925674901    1.19105889981207
C         7.55292554350237   -0.79389012959358    0.89541852678974
C         7.92694022347644   -0.93011019792312   -0.56329979576798
O         8.47368557900471   -1.96554161953677   -0.93742212620207
C         4.53543561856451    1.21225283551318    0.91338617303233
C         4.88708818146981    2.31992625608983    1.76772759502164
C         5.08361980679607    3.35444179380670    2.33086580362568
C         3.23543218585611    1.17530076687884    0.37859310688645
O         2.41184277000471    2.26326832255892    0.57275830546363
H         1.47815042291462   -0.39513500160681   -1.98756046222076
H         0.82982469910624    0.98699666372585   -1.06624685231932
H         0.80439184825849   -0.57073554466310   -0.27540885139454
H         3.00376577885973   -2.07905621683234   -2.29084371542723
H         2.19678999986810   -2.70716671949106   -0.87904062209500
H         3.64985724438252   -4.25190692076904   -0.98318733641553
H         5.61169422731537   -1.75443130349739   -0.22405575086211
H         7.33855145777223   -1.76458080099777    1.34788527262722
H         8.47377518962511   -0.33915663381432    1.27676058101768
H         7.49642450394680   -0.23366402057569   -1.30262323880987
H         5.27050951273789    4.32797769512943    2.72924044727692
H         2.89388392360465    3.09477493905760    0.71714921255940
