28
 energy: -47.952493470281 gnorm: 0.116066902736 xtb: 6.4.1 (79825abcba525fcdf90b791dcacef51065a7a4e7)
C         1.09298480223993   -0.25679959642656    0.22102695510822
C         2.59295357744130   -0.06179208553745    0.18369345563147
C         3.37010253111175   -1.13757252181362   -0.30911550570974
C         2.70716065600371   -2.27703566006644   -1.06566521491380
O         2.18418424282867   -3.28031046441559   -0.19557984350683
C         4.78593100632047   -1.07347903110335   -0.24826392222222
C         5.46076132628920    0.09985663492589    0.11568118445573
O         6.82676511108981    0.20222797111799    0.22510297183155
C         7.55073198380887   -0.98458716142923   -0.08122290119159
C         9.01929974281849   -0.89882922471193    0.26842884718795
O         9.81842721130817   -1.83258373480928    0.24575652963682
C         4.66340185465876    1.20903828349284    0.40808486512980
C         5.24025692414754    2.52628458541514    0.52033296603436
C         5.32111053408894    3.68657415025299    0.79081875495420
C         3.25873761370056    1.16013206058745    0.45172615134817
O         2.43737018858284    2.26653248293766    0.48183782196519
H         0.88137406981322   -1.32244247393362    0.13641392455270
H         0.53264675789410    0.35358975783100   -0.50082328934413
H         0.82057140195174    0.06995236172728    1.23144317237145
H         3.39079798581164   -2.67255261668489   -1.80709274930970
H         1.86555231017933   -1.83049222497400   -1.61195953461978
H         2.89368590904913   -3.58048525606894    0.39779436231024
H         5.39737669941748   -1.90468605550610   -0.57775502437085
H         7.50591955152818   -1.19324202326373   -1.15238011650611
H         7.06866842158509   -1.87085113415854    0.34576571034701
H         9.26255959859496    0.13786849858168    0.55663483148337
H         5.73616152422207    4.66498385736102    0.89967372531411
H         2.95091875672847    3.06238345530759    0.69979369084962
