28
 energy: -47.957051040164 gnorm: 0.108593174620 xtb: 6.4.1 (79825abcba525fcdf90b791dcacef51065a7a4e7)
C         1.25789953783682   -0.06499473559641   -0.75095407449784
C         2.67348625414579   -0.04341931121232   -0.21712190244391
C         3.46600526522854   -1.21424164848944   -0.14491818175759
C         2.79267767154938   -2.55872118670665   -0.36681986497761
O         2.36287159130484   -2.71766975926522   -1.71852815502405
C         4.83375775105940   -1.12710301311909    0.22119813085454
C         5.42454198326773    0.13107889621509    0.40153352027886
O         6.73379536916409    0.35130113295418    0.75618419621392
C         7.47049889631488   -0.70154813746646    1.36877709417367
C         8.38340447426966   -1.45982109560374    0.43179920911542
O         8.90592179338767   -2.54996315243081    0.65446976572330
C         4.67824672262198    1.30825854241421    0.30741956877333
C         5.40973566735857    2.54264021062440    0.45481364792103
C         6.06845143846174    3.53163324140921    0.57295777019958
C         3.31397157847649    1.20479894604527   -0.01727634797793
O         2.60604188263840    2.38580368096440   -0.07840256000979
H         1.26156386320290   -0.22613013948763   -1.82870875954004
H         0.75168970016017    0.83390413515216   -0.37233277743441
H         0.64587003352681   -0.87668414175814   -0.34047018632889
H         1.87069598489784   -2.57672388254559    0.20162901130913
H         3.49362093856152   -3.38429299466609   -0.18446621295367
H         1.69373558849941   -2.08138197267607   -2.02346311531069
H         5.39071468636221   -2.04850008407489    0.34020125681342
H         6.87679958191156   -1.38558776924420    1.97913247458676
H         8.13566997922747   -0.11503351129707    2.01198499896446
H         8.77728372167729   -0.83262105033716   -0.38579449047014
H         6.59862335391831    4.43320998887005    0.79085539862200
H         3.31269445726042    3.05034067254353   -0.01800063204138
