28
 energy: -47.954965848632 gnorm: 0.127273798843 xtb: 6.4.1 (79825abcba525fcdf90b791dcacef51065a7a4e7)
C         1.02144068427382    0.04014318685721    0.48470472164376
C         2.49291103970877   -0.03471615071527    0.14046771956411
C         3.19710570330032   -1.23491548510462   -0.11983236848574
C         2.43915114015660   -2.53449982507801   -0.33621410936026
O         3.23660195207773   -3.38369747517536   -1.16086480717719
C         4.61371346717844   -1.26111937058256   -0.18995341683358
C         5.28043185052503   -0.05801737701698    0.07949186529106
O         6.65050325408841    0.03657093055223    0.12824385443873
C         7.49083939070437   -1.11186005507005    0.16612758134013
C         8.82446455584105   -0.54844758888581    0.60237561445337
O         9.69117945137432   -1.33909239831799    0.96939374274176
C         4.61170528281995    1.16849344171192    0.07301605039460
C         5.28457353423846    2.43886311818721    0.19094987209407
C         5.86194324216616    3.45539507567816    0.43442206915846
C         3.20569783088724    1.18876241294384    0.08351409961225
O         2.49173695463343    2.36687271340607    0.12811267669021
H         0.76214278422181   -0.82089053928643    1.10026847176393
H         0.39969172433674    0.05108289387174   -0.42134727375255
H         0.81274494548633    1.02914101136929    0.90925886720124
H         1.44152611539629   -2.43930001752528   -0.74754093221538
H         2.28179706424737   -2.99649224335782    0.64762827114781
H         3.34852443174824   -2.87279740223511   -1.98064828063748
H         4.98197488727562   -2.27725167478730   -0.26202280206743
H         7.61666540705296   -1.59131746226093   -0.80712017345843
H         7.06246988878197   -1.86515563290770    0.83636166277084
H         8.88197536284003    0.54333547134664    0.45512591695020
H         6.55587664503275    4.25297698064518    0.58844090952319
H         3.16821297086561    3.05401843242977    0.00634804282256
