28
 energy: -47.955712779713 gnorm: 0.106714843969 xtb: 6.4.1 (79825abcba525fcdf90b791dcacef51065a7a4e7)
C         0.93032485796836    0.10325987958046   -0.10444913628097
C         2.43862199241975   -0.01224094151513   -0.07239686821145
C         3.20337327631522   -1.15542580108780   -0.40767069903149
C         2.55957452972468   -2.46856287246970   -0.82171155253362
O         3.03465810723114   -3.58960265493309   -0.07694406378359
C         4.62014177473132   -1.13288285269901   -0.33955322971281
C         5.29804850072198    0.02667584085259    0.06098975412817
O         6.65949495161315    0.16058891229872    0.19118271475791
C         7.49485475182395   -0.99084498054896    0.24473384697909
C         8.96999296447514   -0.65898302022841    0.25643531516349
O         9.77616048088826   -1.58538142699935    0.31025127785001
C         4.53679897828799    1.17407495786226    0.29665985729959
C         5.30916985964004    2.36802714126273    0.53836340816281
C         5.86795218795237    3.42308417848593    0.56262611061773
C         3.13370882171711    1.13608055642284    0.38193841894456
O         2.44095863870806    2.30250125486426    0.62531669603620
H         0.58023689375232    0.52758418921068    0.83625299812104
H         0.33791462772151   -0.82165133178638   -0.13924897773812
H         0.65063244829940    0.77381130530481   -0.92545447747784
H         2.73442464325784   -2.67830735156076   -1.87001644137232
H         1.46894359215240   -2.44639186825763   -0.69452771171580
H         3.88375781725689   -3.31967059762138    0.31261573273247
H         5.08783872972455   -2.06722107723196   -0.62522257069343
H         7.28760401074287   -1.64796820540411   -0.60270876581613
H         7.27217072868184   -1.46072665577086    1.20899077363732
H         9.24516722684173    0.39426990071389    0.43509036209256
H         6.25950942078107    4.39986465949288    0.74697658124650
H         3.02451832335317    3.07053066945043    0.74449963820508
