28
 energy: -47.951566464667 gnorm: 0.115542989500 xtb: 6.4.1 (79825abcba525fcdf90b791dcacef51065a7a4e7)
C         1.14402998274375    0.16972492335569    0.53648782877800
C         2.60007979874119    0.14726225412238    0.12570516531450
C         3.23444510256891   -1.11829803770154    0.11779925900408
C         2.66730936631903   -2.51776043801819    0.29128605218984
O         3.49019037466367   -3.61261698721945   -0.11029730410365
C         4.63324500049640   -1.14696451855324   -0.11654714387188
C         5.38121866395966    0.02236706701954   -0.31088606706108
O         6.71764792481183    0.15843703787557   -0.60047397939049
C         7.58294678528623   -0.92984661200002   -0.29487569561740
C         7.80456082439448   -1.38117592715472    1.13112959782769
O         8.95131626144056   -1.63871920907631    1.49118467102901
C         4.77382707208608    1.28013786663398   -0.28531194504088
C         5.48730260444999    2.53353441950052   -0.26412363803311
C         5.80814039031521    3.68254454696490   -0.31713838692194
C         3.37549332793004    1.30356105834465   -0.13871011619522
O         2.73527694558674    2.52407324587147   -0.15079459592110
H         1.18962007217241   -0.35159556010767    1.49235377652717
H         0.53673624821367   -0.32762163186521   -0.23257809086693
H         0.80112251710858    1.19589216349156    0.71344006559632
H         1.75181678557340   -2.59052107406430   -0.28324651752326
H         2.48585123068774   -2.66093539481556    1.36493264388392
H         3.32913485248213   -3.73267711427795   -1.06173682011788
H         5.15245595621308   -2.09553230119404   -0.17959062055751
H         8.52499536155686   -0.49573288097785   -0.63694664653081
H         7.30365406604871   -1.81229116666436   -0.88092651889246
H         6.94657915816329   -1.61359981781374    1.78444943574782
H         6.10365280341852    4.70890748322401   -0.29156873285273
H         3.38400130824247    3.22848176197834   -0.31686990167470
