28
 energy: -47.952012197227 gnorm: 0.128203707584 xtb: 6.4.1 (79825abcba525fcdf90b791dcacef51065a7a4e7)
C         0.89352913325860    0.19821386587238   -0.19421169085785
C         2.39811508105890    0.04075589710218   -0.16671341274824
C         3.13348296143433   -1.15839008744552   -0.00731547471186
C         2.42857991476609   -2.50021561498620   -0.12068034911870
O         3.29895347294629   -3.63053612766905   -0.16471017603715
C         4.54607354710703   -1.28864048935593   -0.00927504174176
C         5.29232279358171   -0.10260376902412    0.02230894658249
O         6.65922810932722   -0.00228897027691   -0.07732118939197
C         7.46973121281280   -1.15615103769539    0.11807784219090
C         8.83260925695756   -0.55467794281925    0.37710600487178
O         9.72450737313914   -1.20433647688678    0.91884189173083
C         4.62620954441243    1.12223944837845    0.10959128489519
C         5.39961891807923    2.32727237789835    0.28346707187143
C         5.87440106194960    3.41982016902049    0.36649096291380
C         3.22365997079897    1.17662504596963    0.02429820965303
O         2.65123964093332    2.42695715606904    0.11745205989799
H         0.36624257190016   -0.64652233493884    0.24842002962556
H         0.62696419210713    0.46357161395344   -1.22675712054314
H         0.66462726887332    1.08087952959716    0.41441142338242
H         1.70356054674296   -2.46871043968155   -0.92495815710496
H         1.89437229052434   -2.65500795030130    0.82631736988146
H         3.71242015841461   -3.62746057959246   -1.04483875166720
H         4.93784585027430   -2.29546720595734    0.06914537597500
H         7.53762135548038   -1.89721245280771   -0.68138553528071
H         7.10636510833579   -1.57506179070980    1.06287794753113
H         8.79661264981290    0.53022035753889    0.18043333354731
H         6.15779629636692    4.40242041894835    0.67566108468170
H         3.37107018418367    3.07057706079659    0.22796483012332
