28
 energy: -47.953646162176 gnorm: 0.120231918987 xtb: 6.4.1 (79825abcba525fcdf90b791dcacef51065a7a4e7)
C         1.20387507141016   -0.17031741814994   -0.65272810559891
C         2.66082314360959    0.02567012475257   -0.29465095460227
C         3.57010667697005   -1.01121298161520   -0.61434079857663
C         3.09263371350875   -2.19813676490630   -1.43499123620096
O         4.00626884238067   -3.29279635446772   -1.49905721715356
C         4.93191291914140   -0.91395077075338   -0.22910711579546
C         5.38222355712780    0.25421556451424    0.40111215430435
O         6.67751658638539    0.41508579188449    0.83094479952976
C         7.49936240369006   -0.72834953072148    1.03979605348356
C         8.18635794815172   -1.14853503768519   -0.23996302234819
O         8.60857250056329   -2.18081166790826   -0.75683443697521
C         4.50291693000511    1.29154664668629    0.72100284204127
C         4.96702707930759    2.34268219313670    1.59290595638286
C         5.19676501760950    3.29000358046456    2.28266997016829
C         3.14269768161410    1.17199571806357    0.38501299861275
O         2.24639017404608    2.18883217129533    0.63471187896182
H         0.93472954909501   -1.22534325808495   -0.69760987409437
H         1.06820747579395    0.16042278954238   -1.69187529753030
H         0.62831598118005    0.51422125684554   -0.01864974294554
H         2.97677522536583   -1.89013707928348   -2.46708689935505
H         2.20051441700934   -2.64612374574023   -0.97719875576429
H         4.26013269765915   -3.50701524080716   -0.58513496649914
H         5.55607975424252   -1.70721364714485   -0.62215305328984
H         7.07055069393225   -1.63405581339686    1.47423756866529
H         8.28415943865808   -0.40756205728728    1.73359529960744
H         8.28645746265817   -0.21171474213755   -0.81383412078799
H         5.47864518146919    3.96316298620598    3.06292778759704
H         2.65584193479698    2.76553983707462    1.30132510216403
