28
 energy: -47.948756327614 gnorm: 0.117925990910 xtb: 6.4.1 (79825abcba525fcdf90b791dcacef51065a7a4e7)
C         1.06787870519512    0.10083149780418    0.08995881972827
C         2.58036914087125    0.10927589476325    0.04959274905306
C         3.27971116957400   -1.12132795261175    0.07527559150786
C         2.57288033900185   -2.46600555619552    0.02559709749084
O         3.50886834116412   -3.52690286005826    0.21410860191396
C         4.69795906314931   -1.09524716808683    0.09182461799950
C         5.35051557249233    0.14273560400814    0.01348407032501
O         6.71334362548271    0.18567995834620    0.18458301130098
C         7.53376325445763   -0.84365398543780   -0.35752122030586
C         8.50114121376588   -1.27565468683416    0.72130096715027
O         8.89832903791922   -2.41739614594451    0.94420117747190
C         4.71785304066634    1.38499507398496   -0.07649089469866
C         5.41370351262409    2.64722272089229   -0.13192272174579
C         5.72436149965630    3.79687311654009   -0.22005505595186
C         3.31401785376695    1.31917337949006   -0.02861317521211
O         2.52995003022622    2.43193542618871   -0.24464865746421
H         0.66296964581534    0.58549912882899    0.97803491358891
H         0.61703824557487   -0.89533433471493   -0.01966862703845
H         0.63621314697011    0.59048863528462   -0.79084624633987
H         2.07917663272721   -2.52216546242731   -0.93700934753291
H         1.78020681600384   -2.58276259739795    0.77671600009987
H         3.24093433617343   -4.01589162862321    1.01078408265391
H         5.28998082466900   -1.99967511148174    0.16150722812480
H         8.09493142894887   -0.42558345811704   -1.19610937933049
H         7.04162837896117   -1.73798673855596   -0.75519014347376
H         8.99220542961050   -0.44371960663250    1.25395486518522
H         6.25973417052349    4.68721171891376    0.02909460467244
H         3.00495855365296    3.27986233146085   -0.24623845854696
