28
 energy: -47.954623622587 gnorm: 0.113205520086 xtb: 6.4.1 (79825abcba525fcdf90b791dcacef51065a7a4e7)
C         1.60855753268661    0.09751337442369   -1.29435459694249
C         2.87957863476703    0.02475264474531   -0.47671208453911
C         3.57842191228371   -1.15388898055347   -0.12097805179696
C         2.96438313538754   -2.52263970336705   -0.36534145964198
O         2.85098092294969   -2.83437602060741   -1.75353223284820
C         4.89161553806008   -1.13675058522181    0.41531472219011
C         5.41089971902689    0.10660481825313    0.80129381587434
O         6.71719363429422    0.25026339820812    1.20301234510497
C         7.52778277818329   -0.90037136019303    1.41626951740520
C         8.00357799400845   -1.50033846575797    0.11244421654077
O         8.41681969661539   -2.63838110404587   -0.09993864085681
C         4.65900066583126    1.27568861381753    0.66180599936378
C         5.08417726466292    2.61775305589976    0.97579183135426
C         5.19695229711218    3.80174767254132    1.08261068050107
C         3.39960606060375    1.23863392116382    0.03736208849886
O         2.73450292216525    2.43148007797690   -0.14818823315179
H         0.99922289175212   -0.79846231083824   -1.17828533275128
H         1.82223306151409    0.22581760450638   -2.36463608208115
H         1.10013779237156    1.01270427047503   -0.96900582211869
H         1.92183301556346   -2.48107924792067   -0.07401616034980
H         3.47942885581925   -3.36424395723443    0.11691709233943
H         3.67876883976658   -2.73737085072334   -2.25447896577485
H         5.40871679000521   -2.04588980941138    0.69710809056745
H         7.11375596358004   -1.61191819205646    2.13404781588225
H         8.39423548724210   -0.59422073791027    2.01267532020327
H         7.73520842945285   -0.95647360620120   -0.80905944979101
H         5.23031458791333    4.86484681538157    1.18315640714415
H         3.18755246348319    3.11718585373753    0.37062711712021
