28
 energy: -47.950309132529 gnorm: 0.116978720282 xtb: 6.4.1 (79825abcba525fcdf90b791dcacef51065a7a4e7)
C         1.09508587925507    0.14328383321515    0.50669320888799
C         2.56334958108523    0.02845952280821    0.15978525537953
C         3.20832146503016   -1.21533260316885   -0.04298830957475
C         2.43245037410114   -2.52170975091626   -0.08346584721814
O         3.27903695746150   -3.51251543593581   -0.66545250520580
C         4.59934146152467   -1.26303430725666   -0.31715810438882
C         5.34647370974193   -0.08237725708479   -0.20575380079157
O         6.67597943087704    0.04493228226090   -0.52921349971192
C         7.72868706493356   -0.88895940247398   -0.31439571465066
C         8.33533617482857   -0.68814335039342    1.05598809984609
O         8.98202640121310   -1.50523407231797    1.70803927276677
C         4.67646159580356    1.11926922303934    0.03651768247680
C         5.49451806771133    2.30157626557822   -0.07938263393133
C         6.03832319750988    3.35726615320891   -0.20494765050250
C         3.28355314833090    1.24875885232078    0.17940398227802
O         2.57932675750224    2.42935314752778    0.27908017266359
H         0.98259734773175   -0.22144224973392    1.52740591422951
H         0.46380865800809   -0.50782184741139   -0.11392916216676
H         0.79202897023091    1.18684980137891    0.36162973328371
H         1.49081392537443   -2.47942136720354   -0.61735810162292
H         2.21161165795971   -2.80086775064220    0.95549719475744
H         3.46551626963131   -3.30486428548071   -1.59695501950315
H         5.19534278400687   -2.12689311710876   -0.58523592092896
H         8.41418516914322   -0.72261107917496   -1.14826822791821
H         7.37712853034251   -1.92544297890292   -0.36211124558751
H         8.11404998499758    0.26478153275346    1.56583788573527
H         6.42899326615357    4.31384959716395    0.06658004814747
H         3.15699682713886    3.19466108925499    0.12028248500620
