28
 energy: -47.954914007787 gnorm: 0.116285553450 xtb: 6.4.1 (79825abcba525fcdf90b791dcacef51065a7a4e7)
C         1.29019023843685    0.05202399797017   -0.73416400903820
C         2.73144307966530   -0.01344713856654   -0.27827825395295
C         3.43710160825079   -1.21842149547947   -0.04545311282155
C         2.86171004624677   -2.55378682791676   -0.48812636825482
O         2.25347055103215   -2.50314974694303   -1.77831775591248
C         4.77581362618713   -1.17918287945500    0.42219164795765
C         5.40392617243861    0.05377872548068    0.64546027887204
O         6.73129451792870    0.26761883182248    0.92968738603312
C         7.45100039749776   -0.84968855451513    1.43972795843487
C         8.38544105565710   -1.45729694241885    0.41799671371260
O         8.85958936304752   -2.58336582031169    0.55278727538677
C         4.74834773025167    1.26325242596864    0.40265122399550
C         5.34366076702425    2.57619714089595    0.45037715012507
C         5.65956289306963    3.71123105379608    0.25576064218874
C         3.42467724377318    1.20456758931452   -0.06833768190316
O         2.66450260807159    2.35291714308774   -0.01265205409627
H         0.82208095585476   -0.92145657697629   -0.59014151069698
H         1.25548862749264    0.42723709621430   -1.76645882823499
H         0.83047277492879    0.77039548378677   -0.04531054327420
H         2.12302851177009   -2.99027171454557    0.17318972962973
H         3.73990663841649   -3.21067738341572   -0.42974251099396
H         2.93301209058728   -2.31409905192307   -2.44770075436967
H         5.23610249617990   -2.15953849777950    0.44148801076882
H         6.83914983328842   -1.65695707408329    1.84823647633192
H         8.11492098682188   -0.40859518748609    2.19126935924980
H         8.72610441945924   -0.81156976143671   -0.40902510983486
H         6.06437612120335    4.68560227457147    0.08804288817169
H         3.30350242492044    3.00013691745639    0.32998691879383
