28
 energy: -47.947241757036 gnorm: 0.116542153050 xtb: 6.4.1 (79825abcba525fcdf90b791dcacef51065a7a4e7)
C         1.13940390495411   -0.10535355099809    0.22481459242599
C         2.61426373265468   -0.15745956045018   -0.10895400541498
C         3.37053549034683   -1.30001018144016   -0.46498179840957
C         2.68424783910698   -2.65405305191870   -0.54122341467884
O         2.49629472082935   -3.03499625569051    0.82137304778053
C         4.76841445443510   -1.21944681296814   -0.69263302843025
C         5.45485260451519   -0.02150522365681   -0.45116425100007
O         6.80300030843494    0.15038042114997   -0.65456639278914
C         7.81003801251681   -0.83512415928068   -0.45171299298573
C         8.28083339494182   -0.69753728744516    0.97857494615551
O         8.96944345558218   -1.49508375021169    1.61162474898855
C         4.70258451984056    1.12521386768657   -0.18528083220215
C         5.28794161872749    2.41947400744539    0.06521258623152
C         5.86246758642542    3.36139401053141    0.52202583326725
C         3.31057320302906    1.07137310789025    0.00650983766869
O         2.72406108348531    2.21203908666955    0.51104695689983
H         1.05422259856582    0.54397061991421    1.09582290197207
H         0.55297790035451   -1.03036699036391    0.31468300329647
H         0.68952206017424    0.56428328304020   -0.51755301651589
H         3.18607418656558   -3.37275326386097   -1.17773638991482
H         1.65907083261316   -2.59206230639220   -0.93021233198093
H         2.21090374983844   -2.20248363511267    1.23497333742920
H         5.31186261390097   -2.09343222048972   -1.03049236294460
H         8.59626246878167   -0.43802813859571   -1.09753699384244
H         7.59047225779155   -1.86343543435147   -0.75917872575039
H         8.07406822708900    0.31322024060048    1.36921237426995
H         6.42598925437065    4.26901478791843    0.53040017874960
H         3.38178561179029    2.92744983095984    0.52524464815273
