28
 energy: -47.957510501748 gnorm: 0.116947890691 xtb: 6.4.1 (79825abcba525fcdf90b791dcacef51065a7a4e7)
C         1.08246487446279    0.07429402361065   -0.59533612007939
C         2.54806347958935    0.03306309488031   -0.22164002691508
C         3.21557888102015   -1.21289341517699   -0.14328023023877
C         2.49239611462826   -2.50325687925586   -0.49285774782504
O         2.76287463001825   -3.56016033346006    0.42741920683161
C         4.57324499667431   -1.26884235594284    0.26414287270804
C         5.33498868905033   -0.09409155976109    0.32953157821234
O         6.63221807847847   -0.08494799682559    0.78288756959363
C         7.54081839462902   -1.11038639445192    0.39634483822670
C         8.92877613753013   -0.52088659931386    0.28514535050932
O         9.91876714961063   -1.21572774669355    0.06576028738045
C         4.65265843770737    1.12383834627041    0.27816897261754
C         5.39651768810525    2.35866917061652    0.32680484836364
C         5.64380373226067    3.52588816758575    0.37601000342731
C         3.26898952225166    1.22294288063760    0.04791561208171
O         2.65110190645920    2.43802818777224   -0.15569094659475
H         0.49795417140464   -0.48557216292923    0.13434209480266
H         0.95394599082077   -0.31763499610268   -1.61391169518533
H         0.70548278997749    1.10265814006859   -0.64296573249114
H         2.79943311121726   -2.86421695080143   -1.46699560159791
H         1.42598572735805   -2.26187900213157   -0.59605044850121
H         2.09081362698717   -3.50338814254355    1.12792002371848
H         5.00119492507987   -2.26322342303138    0.22671983930161
H         7.36279322751271   -1.51639973470225   -0.60184501886994
H         7.49973818705211   -1.98093615242387    1.06013992326235
H         9.00669501835130    0.57719561509604    0.21356103586000
H         5.98872441322536    4.51908276064125    0.56573742640975
H         3.33714412596828    3.11440105549602   -0.02731072558474
