28
 energy: -47.956698906056 gnorm: 0.108763777161 xtb: 6.4.1 (79825abcba525fcdf90b791dcacef51065a7a4e7)
C         1.22953384494820   -0.14403193362287   -0.08223281968626
C         2.73708704328867   -0.02471194738812   -0.03350780988356
C         3.59101025537688   -1.15097996465935    0.04686754579730
C         3.15585212241070   -2.59938969989702   -0.10473148581905
O         3.01038310028309   -3.22182149074518    1.17140747380585
C         4.99647401252007   -0.95854314923371    0.04230077325668
C         5.60888625258393    0.30196409901430    0.06762458803320
O         6.95791711802686    0.53902186004444   -0.04345508949102
C         7.76750462668599   -0.57209347778779   -0.41289317959675
C         7.91205217412685   -1.62254008260170    0.66505392852028
O         7.87274337810821   -2.83680655151521    0.47789626538099
C         4.74883568609718    1.40261200881080    0.04633719561277
C         5.25504143131494    2.75123482227963   -0.02763204022450
C         5.51535130411206    3.91493584187630    0.03569590617861
C         3.35781157557212    1.24798072734110   -0.08974767665506
O         2.54639527845189    2.35538842886932   -0.21191487939214
H         0.85385016120061   -0.62817712400957    0.81887672453505
H         0.92505548602253   -0.80854948364775   -0.90280031668978
H         0.73551265382226    0.81549951510611   -0.27500026696136
H         3.97429516758498   -3.07923697749438   -0.62761390643400
H         2.32328926850175   -2.72461117938185   -0.80992777032874
H         2.15850326181319   -3.01676513239162    1.59312194868778
H         5.52279418238823   -1.90131636701122    0.12890950144401
H         8.76052002408319   -0.14126275795528   -0.55859183250971
H         7.49974852185674   -1.06521971700299   -1.35379783017545
H         8.01829305146378   -1.23197841207791    1.69128717365803
H         5.58794180445436    4.92892051863216   -0.29288889269958
H         3.02532736691317    3.18155283345369   -0.03110533185350
