28
 energy: -47.956872440769 gnorm: 0.111475153225 xtb: 6.4.1 (79825abcba525fcdf90b791dcacef51065a7a4e7)
C         1.28926888546383   -0.13637473883515   -0.60127361847488
C         2.75104293021757   -0.04647135472727   -0.22119197830180
C         3.57742792815294   -1.18639352007024   -0.07357768179914
C         2.97620869642442   -2.55970276140608   -0.32416257285751
O         2.82341179984643   -2.93177546805177   -1.69358881030070
C         4.92272689978261   -1.15157350753738    0.37513090137981
C         5.43732531630262    0.14921020800156    0.46298738199074
O         6.71041497559292    0.47881975717358    0.86176002768483
C         7.62504472403397   -0.54830668037160    1.22912555721082
C         8.15510040764823   -1.51172199990910    0.19125566085796
O         8.29740095727686   -2.71836594069410    0.37774207414698
C         4.68762203611448    1.30274254539578    0.22034755167214
C         5.23098234634600    2.59454668144941    0.56166973856547
C         5.74974815152184    3.63845169465671    0.82073744097037
C         3.31875893084874    1.24594833732603   -0.09645870603322
O         2.58045763766096    2.39516837909582   -0.28051721185989
H         0.85500212179060    0.74179554735044   -0.12402888249288
H         0.82138479341245   -1.05606138087591   -0.22327544782824
H         1.04069253660306    0.01536866184863   -1.65820340030827
H         1.99871089751958   -2.65484191268200    0.13295343377646
H         3.62506412025092   -3.37066888029432    0.03285804149710
H         2.57739673623766   -2.18654241353216   -2.26777932740811
H         5.51292854650120   -2.04862382866454    0.51760216538517
H         7.24016969613482   -1.15257738511641    2.05353498961255
H         8.48805616340708   -0.03468173545153    1.66681157920230
H         8.42794935537281   -0.92222808286328   -0.70038921735936
H         6.05401956618875    4.57248754355072    1.24073530432528
H         3.10973709387417    3.14350571839690    0.04270120854545
