28
 energy: -47.948635259597 gnorm: 0.117510389722 xtb: 6.4.1 (79825abcba525fcdf90b791dcacef51065a7a4e7)
C         1.05239160474385    0.17039515791026   -0.51914271499661
C         2.53504319683548    0.00075909843033   -0.26955123145593
C         3.18626530784800   -1.25302427814773   -0.17976420029345
C         2.32717173196540   -2.49391965653142    0.00015944447034
O         2.84941077977317   -3.73918481479548   -0.46211133499881
C         4.58114236321600   -1.30384527734509    0.07344793264351
C         5.28271619499220   -0.09679362611038    0.19750053251369
O         6.63708546939141   -0.00897895010462    0.41288811952637
C         7.49647905743983   -1.12220764838218    0.63347428100589
C         8.82282348604351   -0.68012930273242    0.05755829085484
O         9.88621206154536   -0.59487041363607    0.66825616245490
C         4.65715172560257    1.14755902718444    0.08877362727924
C         5.40679306700189    2.34141883406496    0.39411905766227
C         5.95188156244334    3.39820856403463    0.50387208466249
C         3.26586787976609    1.20402127320488   -0.10748968090578
O         2.63715195894451    2.39343102338565    0.19199953763801
H         0.56030855749029   -0.21883381117609    0.37186137899751
H         0.76033158920419   -0.35797311152147   -1.43737448582039
H         0.75364366458272    1.19504220574740   -0.76967200326447
H         1.31523984072963   -2.32018415628456   -0.34526532672106
H         2.14407550631821   -2.64656830323302    1.07222161161755
H         2.91423490058289   -3.75989534808183   -1.43214193981353
H         4.97010513767066   -2.28710119241673    0.30850345421622
H         7.14399231483301   -1.89167744864196   -0.05688222748609
H         7.60287290981331   -1.46092282308049    1.66987225410545
H         8.75522040033444   -0.31106182159839   -0.97984193760738
H         6.55828112897321    4.18348312186633    0.90013678306666
H         3.35003547883682    3.05156795766442    0.24917058458158
