28
 energy: -47.960461740164 gnorm: 0.108102506135 xtb: 6.4.1 (79825abcba525fcdf90b791dcacef51065a7a4e7)
C         1.39292814001820    0.03943055770900   -1.00761225888880
C         2.75622775467376    0.01950486302447   -0.35160527647828
C         3.43541316328599   -1.18558419342122   -0.05061982292656
C         3.12298171198263   -2.57768491615487   -0.57471694662310
O         3.66517352556695   -2.79281294014245   -1.87735319120314
C         4.71204208057346   -1.12637379941658    0.56508619097563
C         5.33289960738045    0.11166106359524    0.78043285625912
O         6.57759026629930    0.30447283870247    1.32996733804889
C         7.43479551555860   -0.82164068543834    1.48346399763517
C         7.66375193678586   -1.50067697581573    0.15200212945755
O         7.86008011705370   -2.69971229743295   -0.03450731665540
C         4.65713639380212    1.31541051185049    0.56619628842979
C         5.29008279267975    2.60755120939578    0.66744085598877
C         5.67894039768234    3.73509708072351    0.72576566714331
C         3.36695760630774    1.24569733542594    0.01125775973849
O         2.63306408324922    2.40196854641671   -0.14401695970600
H         1.46487105215241    0.51463220398098   -1.98564130735942
H         0.81472409408268    0.75607141218271   -0.40783927302876
H         0.95436867286164   -0.96530781909494   -1.01673459048849
H         2.07070152574048   -2.83223431935461   -0.61239263762273
H         3.62910384092210   -3.25619520555635    0.12500250301951
H         4.56057459210591   -2.44543979249960   -2.02960066574425
H         5.30586989084237   -2.02346872463268    0.69127875048925
H         7.00775445347253   -1.41477301956842    2.29509984665150
H         8.37745738019015   -0.47103608996787    1.91778347688826
H         7.63665425571309   -0.79435638011334   -0.69496726097595
H         6.11819965093338    4.70314934746838    0.83220054466699
H         3.14764453696746    3.09930629295000    0.29591790980705
