28
 energy: -47.953301565884 gnorm: 0.120282782535 xtb: 6.4.1 (79825abcba525fcdf90b791dcacef51065a7a4e7)
C         1.23545463056736    0.03014815845984   -0.61091956932654
C         2.69733164756739    0.09181825578952   -0.22563989023945
C         3.44871478122589   -1.10721797325486   -0.18250967752266
C         2.78265760375039   -2.44940066381146   -0.43775288254238
O         3.62449134086253   -3.30822661248741   -1.20641871691933
C         4.81614842647249   -0.98410621843190    0.17435147556864
C         5.38712201925710    0.24804678171784    0.52127614306772
O         6.71571333657230    0.36200494416235    0.85335747881509
C         7.47978210526405   -0.78762104492160    1.20128381083001
C         7.78435752346932   -1.79155285340062    0.11240513615010
O         8.37914070672213   -2.85503103370713    0.27446486018039
C         4.63866829524679    1.42349947032022    0.42281816504229
C         5.30906481179221    2.68551054441832    0.61876655273093
C         5.70247542956628    3.80891882888555    0.52309187936591
C         3.30773364165834    1.35502915199869   -0.02584961069489
O         2.62228047396514    2.54571888664571   -0.13578124337978
H         1.21970758764441   -0.52955530611768   -1.54580847977571
H         0.86753229098177    1.04632343462049   -0.81002413166324
H         0.68035673910432   -0.39367134987061    0.23416041926915
H         1.95893768718361   -2.25139627792169   -1.11287377283084
H         2.53119360365962   -2.91661117673940    0.52382047430110
H         4.58087840047572   -3.28845791628168   -1.03170907764063
H         5.43382263584379   -1.87310927709204    0.21291920347377
H         7.01201393656733   -1.28168390815183    2.05569449214663
H         8.40390244224284   -0.22894130197967    1.38580192218132
H         7.36823229951895   -1.52839275254223   -0.87479635031849
H         6.24838539558226    4.67833050640184    0.81890926040163
H         3.12480159468808    3.33142883460457    0.13761967398540
