28
 energy: -47.950725535906 gnorm: 0.114767612334 xtb: 6.4.1 (79825abcba525fcdf90b791dcacef51065a7a4e7)
C         0.92183037891089    0.18547304011104    0.28723665644855
C         2.41044296189613   -0.00222494457874    0.09196738749432
C         3.10659434421991   -1.23489480200711    0.09676057720251
C         2.45359913670514   -2.57337685507054   -0.20704639757814
O         3.26380532968574   -3.43277561814744   -1.00836587402230
C         4.52126027592462   -1.21320015824514    0.19986635466422
C         5.26914291980689   -0.02858672861097    0.24381119636943
O         6.62646671716620    0.06260532799626    0.43817031555562
C         7.53610916932071   -1.03233251792298    0.42570255624441
C         8.97937646992349   -0.67935260933001    0.70621407391978
O         9.85629321545888   -1.51911062615789    0.51427730284497
C         4.53520733663881    1.15262393248041    0.11097332858454
C         5.29683460210110    2.37741522676061    0.12856335582513
C         5.85704029681476    3.42544962608101    0.01123813836481
C         3.13414003894902    1.21322939089294    0.00745807901278
O         2.47053511245643    2.39482201277956   -0.24381950265358
H         0.56595767019175    0.57773656119102    1.23961113651012
H         0.43696912280938   -0.78790612217760    0.12891977576713
H         0.48204309955766    0.81386621501088   -0.49610617805700
H         1.60249071555156   -2.33755889456925   -0.83435238204858
H         2.12654694342175   -3.10580440101655    0.69611521315366
H         3.75343211932481   -2.98924209322296   -1.72190219829626
H         4.99546073308813   -2.18655202932954    0.16737945995489
H         7.58010045206719   -1.46967975463018   -0.57415490569637
H         7.29451814916343   -1.76892441908418    1.19980495921799
H         9.16624327811442    0.39337537428202    0.88317645539236
H         6.54115668923876    4.24477963005892   -0.03442784243709
H         3.08840109053462    3.13704027737367   -0.35322399456385
