28
 energy: -47.950477406594 gnorm: 0.114249081490 xtb: 6.4.1 (79825abcba525fcdf90b791dcacef51065a7a4e7)
C         0.94754113168250    0.25280285877613   -0.45441432391239
C         2.44089058787488    0.08865532091134   -0.27471728810711
C         3.21017471066571   -1.08943748729618   -0.43099900700376
C         2.64625039267412   -2.39064035219515   -0.97789579718597
O         3.57529140596879   -3.46313622969594   -0.82378997389842
C         4.57691205533954   -1.19127609699987   -0.06488551879536
C         5.25246107213975   -0.06854043774007    0.43277576027848
O         6.55563454865812    0.00060536249252    0.86333017717114
C         7.49357923314912   -1.04775462685666    1.08172162276592
C         8.60662567724810   -0.96364525194542    0.06174355653572
O         9.68531271625094   -1.53423533868882    0.20965384772429
C         4.55717936320772    1.14232580860096    0.47696011294985
C         5.34053233119138    2.33094245266536    0.70944199668410
C         5.64635530892071    3.44484125809247    1.01221831124406
C         3.18742382433634    1.20961755389427    0.16612318979200
O         2.52795246894858    2.41678197917187    0.07937851981674
H         0.55312147868120    1.11555412125018    0.08189398601828
H         0.48123430460475   -0.65789129127541   -0.05339590195427
H         0.62151608122158    0.30337137425819   -1.49991292164414
H         2.19247361446843   -2.40411712372209   -1.96146758268608
H         1.82260866054752   -2.69279728163589   -0.31724564985312
H         4.24643814623542   -3.41249162165917   -1.52563585793380
H         5.06763047852371   -2.15406581265760   -0.13949603254036
H         7.05117681339374   -2.04074355799285    1.18743757494303
H         7.92435344064052   -0.79016643506180    2.05550306039541
H         8.30665861563651   -0.25521984896301   -0.72891024010259
H         6.10303140569492    4.32344358360627    1.41335067979205
H         3.10200000654881    3.14499495006631    0.37056738814095
