28
 energy: -47.946440244156 gnorm: 0.115825637204 xtb: 6.4.1 (79825abcba525fcdf90b791dcacef51065a7a4e7)
C         1.42389212939391   -0.22358687714306   -0.84390773469748
C         2.80525731627721   -0.04578734185386   -0.25268392655858
C         3.59333294693709   -1.19838640429216   -0.01906691642239
C         3.30696273162909   -2.53638444562565   -0.68087427353036
O         3.58172121647968   -2.47550745973489   -2.08012942717381
C         4.84948571079702   -1.06672755108443    0.62678705148517
C         5.32387715655500    0.24065295409664    0.80079152738183
O         6.58786484181463    0.44193672165367    1.30103081385999
C         7.50065755551693   -0.65016920767462    1.32568513488162
C         7.31233725220158   -1.51936963353269    0.10284903919226
O         7.42993269013315   -2.74188774791069    0.15420080568481
C         4.55984470017598    1.38308348430941    0.55044605016169
C         5.21431978221670    2.62926371149439    0.86540066813498
C         5.96985425321762    3.50865653030275    1.15142104647666
C         3.29016412943788    1.26918621218670   -0.04311663005558
O         2.60643307711295    2.36661304298820   -0.52044172057790
H         1.50730402857585   -0.79833775436872   -1.76599075396335
H         1.00941985637839    0.77348566383290   -1.04806637263867
H         0.72792146677263   -0.76154199655955   -0.18957910562315
H         2.29437483311196   -2.84583203667576   -0.45192801819370
H         3.97197720974126   -3.25675481479584   -0.18593447308070
H         4.53015150327820   -2.68968031796867   -2.06597148372703
H         5.41025742848278   -1.93584547296229    0.94850813365204
H         7.32347808870276   -1.06471896247659    2.32051111188362
H         8.50502667216752   -0.21271851172708    1.33260974224001
H         7.21716772019262   -1.00409823094553   -0.86793330429795
H         6.73550060115673    4.20703489505503    1.41114320762492
H         3.05678383526520    3.16653293072306   -0.20118002379486
