28
 energy: -47.957676831921 gnorm: 0.105764539527 xtb: 6.4.1 (79825abcba525fcdf90b791dcacef51065a7a4e7)
C         1.15497620000562    0.19405547822601   -0.96912655211353
C         2.58941118736182    0.15567406433358   -0.48928162213561
C         3.25244019884671   -1.07234276915557   -0.25160143084744
C         2.57749675445494   -2.43072035322492   -0.34905556795309
O         3.17006217470846   -3.27960008459133   -1.33159444139221
C         4.59768682591736   -1.12597861381805    0.19540623824083
C         5.28465167459028    0.07227252751378    0.43382198227591
O         6.58185958273172    0.15583830633047    0.87956603452351
C         7.33463476411478   -0.99124982941369    1.25905524454800
C         8.36877853533968   -1.47041246892630    0.26544976291187
O         9.44576763516534   -1.94175502010372    0.62454154413843
C         4.68540898847433    1.30501577688673    0.16397343221962
C         5.37878102693150    2.48272365199510    0.62520934271616
C         5.77877248514604    3.40769050840848    1.26584563846670
C         3.34312222198540    1.33248182564750   -0.25422489166031
O         2.70314180823832    2.55267230059732   -0.28934353905849
H         0.53384084395535   -0.05591889136699   -0.10933768713109
H         0.92666269168823   -0.49380085789231   -1.79517029222129
H         0.97539774236338    1.21406197396018   -1.32864728210820
H         1.55995148135676   -2.32109757952804   -0.70415120625003
H         2.59050582456488   -3.00663882994364    0.58598015162100
H         4.07983906015943   -2.94932993295573   -1.42549925541205
H         5.09209525966853   -2.07320328430075    0.37334176391481
H         6.71746328510059   -1.85090160511758    1.52927917515719
H         7.85453240069988   -0.74689929898576    2.19188301395305
H         8.10193033539069   -1.42677798993636   -0.80406801873280
H         6.07894980431403    4.34229933445148    1.68751160470155
H         3.41256100978825    3.15519339857566   -0.00950717625498
