28
 energy: -47.953427452731 gnorm: 0.123791018542 xtb: 6.4.1 (79825abcba525fcdf90b791dcacef51065a7a4e7)
C         1.06604635402627    0.13988216984195    0.26844541016727
C         2.57355178420603    0.07526734452511    0.15628331292022
C         3.32657623417438   -1.11966240116943    0.06025320405989
C         2.56144436228013   -2.39799340599052    0.36138223340213
O         3.32793296159591   -3.55491082709081    0.02798978663636
C         4.73487481918907   -1.12306532173041   -0.11023040099657
C         5.46963572152496    0.04816168172158   -0.34027886983331
O         6.83459563527356    0.15213726027803   -0.46066516378753
C         7.64759600411200   -1.01606049663743   -0.43171472134942
C         8.00599857988579   -1.22297775821040    1.02260122546815
O         9.01256566505243   -1.78100369974782    1.45439513680772
C         4.68728947603148    1.20396762586449   -0.40038654544162
C         5.32026353325620    2.49977871239656   -0.37361541284114
C         5.78094589919236    3.56272857432734   -0.08399310205423
C         3.32311929313205    1.25767132201398   -0.06343902312909
O         2.63639851175856    2.44850808878837    0.03653804630126
H         0.80328242543725    0.05338115131080    1.32248805594909
H         0.57825011463503   -0.66525726970958   -0.29849989016397
H         0.76747361614522    1.14861043741795   -0.04016183890422
H         1.63469845270945   -2.41447595143017   -0.19931268853550
H         2.43051615103386   -2.37099067943181    1.45146103197263
H         3.80249044855309   -3.28648064345629   -0.77720018906117
H         5.36000290245228   -2.00767724127435   -0.11368925106885
H         8.51499860336923   -0.73783549763462   -1.03431439471930
H         7.20137400277384   -1.91640895355731   -0.86809409958911
H         7.14686811288691   -0.94943209236256    1.65824878966011
H         6.35389229880943    4.46444618092711   -0.09032234045320
H         3.23327366793641    3.21317773937531   -0.02376149293586
