28
 energy: -47.958117536765 gnorm: 0.110405114812 xtb: 6.4.1 (79825abcba525fcdf90b791dcacef51065a7a4e7)
C         1.38345299648970   -0.21939398519455   -0.54453494702956
C         2.85944794289080   -0.07928127941293   -0.24264855701548
C         3.74099094587979   -1.17051912373613   -0.43292889399058
C         3.25917888655306   -2.52453571910965   -0.92763267042344
O         2.36755672059576   -3.14907761548687   -0.00455599668283
C         5.08916953541787   -0.96231478319394   -0.04376748290212
C         5.57555486312186    0.29884612484532    0.32700341628424
O         6.92667346653152    0.54646296543929    0.36680017118039
C         7.76937003627840   -0.50535132175141    0.82510457889052
C         8.02133279891147   -1.52453629412219   -0.26304926658848
O         8.09862074104912   -2.72634678346894   -0.01668702820369
C         4.68594530817383    1.36662166182114    0.46848206749988
C         5.20414828424598    2.67395620622336    0.78917081155892
C         5.51754569489997    3.75814005119494    1.17942608814816
C         3.31886292180394    1.18921684547488    0.19100903292481
O         2.38869732425669    2.19313161762918    0.35416583249824
H         0.99307481423707   -1.17854930561352   -0.88388601994432
H         1.05012661915421    0.57944340010920   -1.22156819827044
H         0.82901770255349   -0.04610588420750    0.38524436599403
H         4.07103800663225   -3.23045651952435   -1.05439639515816
H         2.72920970823273   -2.44576803908613   -1.88631481182196
H         1.67889229225882   -2.51492792722359    0.25847621781419
H         5.80073613539617   -1.76727357545612   -0.18178797287611
H         7.34115745958935   -0.94491817974806    1.72861869176369
H         8.70361426431475   -0.03220655777677    1.14680341086245
H         7.97186927970302   -1.11929799166079   -1.28789827738115
H         6.20734566199565    4.57243173733300    1.22949938211575
H         2.78236669555628    3.08036277015155    0.40377398173264
