28
 energy: -47.950983663391 gnorm: 0.112328228086 xtb: 6.4.1 (79825abcba525fcdf90b791dcacef51065a7a4e7)
C         1.11724638816741    0.08983666385142   -0.63168756236908
C         2.59833728630905   -0.01376724276026   -0.34020170019304
C         3.35173504466126   -1.21139055241881   -0.29313893581584
C         2.58434764493154   -2.42987636691981   -0.77960014133651
O         3.39403474808444   -3.57743214735629   -1.03383572506651
C         4.72993196092893   -1.12584721731843    0.03187910179334
C         5.33732687165621    0.10894124549529    0.29821992900021
O         6.58555196509198    0.23280730518359    0.85947804001594
C         7.40386526262416   -0.92305494137093    1.00383711184275
C         8.61650278210932   -0.97749313057790    0.10225585730995
O         9.47949419177536   -1.84302428869875    0.23309113722393
C         4.55062815300064    1.25842285269726    0.40481781005527
C         5.12807310289833    2.50622142265591    0.84077106962098
C         5.67604814904242    3.55620567110753    0.99317887129884
C         3.17612742516834    1.19779028200614    0.11421596794919
O         2.51138451395536    2.37587677090534    0.37860607203358
H         0.74147130686667    1.00481849435182   -0.17437525723198
H         0.58070358544777   -0.80465237493348   -0.28580775405567
H         0.93111594378149    0.14841398187868   -1.71050218143900
H         1.92374971166682   -2.26992812339397   -1.62312570161856
H         1.86856314280579   -2.79940470659698   -0.03311204669510
H         4.03138991771323   -3.36534492227164   -1.73696292840758
H         5.37943208493359   -1.99253605390026    0.05019230150981
H         6.85042118375919   -1.83277305379441    0.76086511402307
H         7.69749535816865   -0.96934137283767    2.05825985212594
H         8.60786095454861   -0.21196190360715   -0.69201580561317
H         6.09743767297683    4.53229794346414    1.09842624492664
H         3.16373869600925    3.01225437185746    0.71635336290183
