28
 energy: -47.948494966274 gnorm: 0.114627396313 xtb: 6.4.1 (79825abcba525fcdf90b791dcacef51065a7a4e7)
C         1.06262410326221   -0.03433814296707    0.35475700221782
C         2.55560145631059   -0.07313204557277    0.11218392426394
C         3.35707072507469   -1.23887014978714    0.16534781645255
C         2.68722089271551   -2.60253013024053    0.20971339957431
O         2.69838987637523   -3.30789754414375   -1.03103044256448
C         4.72655894316717   -1.24381963423405   -0.20459636048449
C         5.40917211008268   -0.02322169432219   -0.29812991121291
O         6.70493992744073    0.01865540259984   -0.75381777956465
C         7.60423269188387   -0.95700710803708   -0.23821238626625
C         8.21370099996832   -0.56641378578198    1.08929929747588
O         9.14457750584990   -1.14380005966170    1.64707187815919
C         4.70895738662646    1.15102511110294   -0.01105893148191
C         5.50040562082073    2.35275231152912    0.08874400242273
C         6.15432362713133    3.32501560257118    0.31910687078440
C         3.30844891500393    1.12746301871247    0.11303316264014
O         2.63722240184785    2.31380405154865   -0.09122887226948
H         0.90247038439729   -0.36094912341942    1.38199079454960
H         0.41050692834404   -0.65015939590563   -0.28016743026478
H         0.68680316890648    0.98967011446633    0.24483637727745
H         1.68239861026631   -2.42377450513932    0.57287598354163
H         3.24348133859246   -3.21678381810699    0.93041434654135
H         2.48748449529755   -2.74564477723743   -1.79587108877059
H         5.25540780459350   -2.16028457633621   -0.43642869567618
H         8.43247081019261   -1.00099137436727   -0.94885279461759
H         7.22799276005101   -1.94066387320313    0.06350149078576
H         7.72438194120051    0.34114594574701    1.48157778129521
H         6.71596690408823    4.23335963770786    0.34860622164764
H         3.18806552410420    3.07627856439268   -0.33581041812545
