28
 energy: -47.949226828860 gnorm: 0.122272567922 xtb: 6.4.1 (79825abcba525fcdf90b791dcacef51065a7a4e7)
C         1.36754679437709   -0.05043445840858   -0.75288790175761
C         2.82160382642083    0.04441727278341   -0.34539636794759
C         3.58436267649385   -1.13931950720163   -0.20016936343361
C         3.05118958437747   -2.55750089232026   -0.32151038775774
O         2.25659779351703   -2.78437591030845   -1.48523923348764
C         4.91504014968288   -0.99610707088177    0.27011653794092
C         5.53701776200147    0.25934417892846    0.30954494250768
O         6.81784483294087    0.46370799338302    0.76356786290257
C         7.51824800575304   -0.64962017782475    1.30802126950836
C         7.88278243900192   -1.72125769592420    0.30551954431629
O         8.47225869894516   -2.75784451463140    0.60388465055042
C         4.77711062850687    1.41674370995489    0.12371315873512
C         5.23949682953031    2.65579314795263    0.69943419887292
C         5.72814580385594    3.48110911547366    1.41080433474858
C         3.43566152480864    1.32023715697421   -0.28687032898361
O         2.61706391915768    2.40341588398228   -0.52413570086702
H         0.79605339038494   -0.11822056788859    0.17249501669533
H         1.35430329220735   -1.04308444331194   -1.22415458776726
H         1.14890054118695    0.80834533645951   -1.39833961475050
H         2.36067212108794   -2.73134370714377    0.49486744125243
H         3.81440299308368   -3.34254600118712   -0.23576311440017
H         2.93545168326995   -2.63538141959489   -2.16534842121591
H         5.55794809565823   -1.86757667216218    0.24676168141100
H         7.08265591552064   -1.09430044989796    2.20548534720861
H         8.48436017379768   -0.23171632005310    1.61158679520667
H         7.70085435270587   -1.42088371784492   -0.74026143703188
H         5.93272816977290    4.29791374314721    2.06835930204680
H         3.16321063586653    3.20163172010542   -0.62000491571999
