28
 energy: -47.950812555181 gnorm: 0.124770079474 xtb: 6.4.1 (79825abcba525fcdf90b791dcacef51065a7a4e7)
C         1.26217826453843   -0.17533832886167   -0.53213251571104
C         2.75399151152631   -0.01907964303855   -0.33362685164699
C         3.57054231892444   -1.16224284428129   -0.15884873041332
C         3.10325538286177   -2.55915334827798   -0.53370817752466
O         3.32587728217996   -2.81092354396309   -1.92085073559154
C         4.86302014511631   -1.01602073925756    0.40727963920955
C         5.45305000052220    0.22240720876515    0.69490713092974
O         6.71981944015241    0.36037535214589    1.20937709426855
C         7.37875219214390   -0.88157006462070    1.43269961498810
C         7.64265287518281   -1.58378713987387    0.11985931849846
O         8.44124900509282   -2.51218783497548    0.01340462367697
C         4.67050360584364    1.36716790569258    0.52546670248301
C         5.26797231346516    2.66867472945781    0.69754322330503
C         5.76041140515764    3.73121287702968    0.93097018081199
C         3.41427602047464    1.21023622653833   -0.08661393536243
O         2.71874270265140    2.37183921490440   -0.34465456044539
H         1.00916115916341   -0.89147527512885   -1.31358208223481
H         0.93532257036371    0.80892916590659   -0.89545678276299
H         0.80419908009567   -0.35888714065842    0.44688828620301
H         2.06277966434960   -2.61621083531035   -0.23762849763173
H         3.65791477575226   -3.31346365807499    0.04032321979900
H         2.83474141536100   -2.22439462889654   -2.52115054405271
H         5.40821957810680   -1.94615000459032    0.51193367463339
H         6.89987656617415   -1.52136635980820    2.17718710448949
H         8.24901720997620   -0.44780471827538    1.93733295614489
H         7.03756184432888   -1.10548342369145   -0.66885521590090
H         6.11739606997928    4.73716826831799    0.97589199618786
H         3.30253968333009    3.14858375873907   -0.36621058221880
