28
 energy: -47.955905709436 gnorm: 0.115239164117 xtb: 6.4.1 (79825abcba525fcdf90b791dcacef51065a7a4e7)
C         1.47412425421009    0.01089470593481   -1.01213610960227
C         2.82053426625867    0.02172767014083   -0.32192544122444
C         3.57593885072933   -1.16569572953858   -0.16858176905656
C         2.93489422028488   -2.54030614901247   -0.26729146119491
O         2.62531851027255   -2.99704704143238   -1.58359835841097
C         4.91989792320663   -1.07154012144699    0.27559149563959
C         5.49968415912610    0.18689372764467    0.48715884730379
O         6.81482283550739    0.43316973959984    0.80049212669379
C         7.72229480730432   -0.55507504717083    1.27626579894177
C         7.91160666417138   -1.64638848753333    0.24694659406642
O         7.88897912985204   -2.86526190910796    0.40459115026594
C         4.69701136064813    1.32992067077022    0.45937852543762
C         5.29685077082619    2.59598107617657    0.80257369922619
C         5.72136379423798    3.68317998948410    1.05507901280750
C         3.37284234566371    1.28947768111933   -0.01212839235552
O         2.57248702472494    2.39830413441347   -0.18419901409174
H         0.81357271396479    0.77438662456234   -0.60191061068160
H         1.05206805226693   -0.99671817472603   -0.89294503899067
H         1.56580771437596    0.22494496017691   -2.08344067029898
H         2.01297325594484   -2.68989868638898    0.28151839254422
H         3.74316606267651   -3.17619320350524    0.11804918576551
H         3.22750367463122   -2.77864310065181   -2.31521520672401
H         5.55978198318821   -1.94185504063718    0.35581409120885
H         7.37495169452826   -0.97348750001812    2.22347568319978
H         8.60775450022409    0.08979486719449    1.29276762080016
H         8.08233296213519   -1.31063627814606   -0.78992524015626
H         6.01233087400982    4.61476699454610    1.48968927502171
H         3.06113923929456    3.18207852609908    0.11834417106895
