28
 energy: -47.953134172577 gnorm: 0.113897081257 xtb: 6.4.1 (79825abcba525fcdf90b791dcacef51065a7a4e7)
C         1.44515705024696    0.06097244543656   -1.16156846473270
C         2.75851882220977    0.06290694308331   -0.41029944022400
C         3.61364555428070   -1.06502338480540   -0.43591469265715
C         3.15666703823941   -2.34505959982751   -1.11629219885142
O         4.11057683311541   -3.40630177896967   -1.14685935003651
C         4.91445254555337   -1.07213956874548    0.12997547850823
C         5.34162071701718    0.13699219714897    0.69574601379546
O         6.62799475483756    0.30055016388059    1.15061960146370
C         7.54404386293105   -0.77716364428795    0.98974477526333
C         7.81901469983358   -1.05460813137188   -0.47098025926811
O         8.42515743441599   -2.01836115089870   -0.93443180205113
C         4.47482449908350    1.22115133996077    0.85331891795064
C         4.83439882077639    2.48310582026175    1.45221490469222
C         5.32905264475895    3.33156332860779    2.13148596767219
C         3.17355253152303    1.20383375939951    0.32061883766964
O         2.45052163316066    2.36269411096985    0.50485252420225
H         0.71851304389505   -0.57644552153590   -0.65835873701138
H         1.50679780346082   -0.33984859257536   -2.18292274893506
H         1.05244914100138    1.08238500119756   -1.09513263221481
H         2.85775624696721   -2.03102523187800   -2.10903748704257
H         2.31112218308326   -2.66444766731923   -0.49244262493278
H         3.69261256024767   -4.25923511793660   -1.35518854367340
H         5.50034880241533   -1.98312927190794    0.11737921205059
H         7.19327369583428   -1.67304113455706    1.50674245096442
H         8.38157771511754   -0.31616462786822    1.52470770699723
H         7.29383312750891   -0.37372156046008   -1.16203598031459
H         5.63818804281111    4.13857751276477    2.75963060473214
H         2.74701536820474    2.79449865522099    1.32354169846947
