28
 energy: -47.950951486488 gnorm: 0.107672047648 xtb: 6.4.1 (79825abcba525fcdf90b791dcacef51065a7a4e7)
C         1.04197297526004   -0.10345228858326    0.01472067730290
C         2.55431897585165   -0.14913394319189    0.02184780918761
C         3.35673202649350   -1.25963833983587   -0.33457606163298
C         2.79060572950064   -2.58490979116473   -0.81768289837175
O         1.75356596840065   -3.11331329968167    0.00842331460173
C         4.76167828297412   -1.08960052437238   -0.43252659585658
C         5.44407508024443    0.11370574171311   -0.20678954860755
O         6.77878641713369    0.33907323474699   -0.44380112181607
C         7.69792538019716   -0.74793466008086   -0.43425503533412
C         8.94070302719719   -0.60542369086462    0.41515438962288
O         9.71260589129478   -1.55502461199484    0.53108664643217
C         4.64418481993535    1.11267703942521    0.35338709770309
C         5.21256131943129    2.33206445306218    0.87352332578818
C         5.77992682523381    3.30096231985306    1.28010053948792
C         3.23946944693967    1.05208244620267    0.33145487341991
O         2.57714271549076    2.19341232899310    0.72940267497760
H         0.57582728390506   -0.98865660570138    0.44675622817107
H         0.74769566242159   -0.11044378608493   -1.04403975287231
H         0.81376027104717    0.86457180279874    0.47598541011248
H         3.51600738795423   -3.38687469433545   -0.88212802091581
H         2.32758445077287   -2.54719922517176   -1.81283732488287
H         1.98556727530330   -3.28003519644318    0.93792300201300
H         5.30356457218600   -1.89156038951499   -0.91889575745323
H         8.06934481019626   -0.85808110932189   -1.45544950801121
H         7.12095138061391   -1.62971171600803   -0.13469100396547
H         9.15962986194178    0.34096884074668    0.93802381085983
H         6.05834052399733    4.30290585243414    1.52504388779304
H         3.20323686650819    2.92793253091841    0.84386598755447
