28
 energy: -47.955952123298 gnorm: 0.122773386351 xtb: 6.4.1 (79825abcba525fcdf90b791dcacef51065a7a4e7)
C         1.26358113576662   -0.08461858486096   -0.81054716180745
C         2.69185865526986   -0.02438729036585   -0.31484205125853
C         3.61098504874411   -1.10093632316427   -0.33416987773723
C         3.11759814542245   -2.35753499968789   -1.03257146431567
O         4.22349754510335   -2.89557080634606   -1.75687610339429
C         4.98981564185201   -0.99446989513988   -0.01814414844632
C         5.43115619637039    0.20209027107187    0.56326007065427
O         6.74645597540882    0.41317444639661    0.90067572003322
C         7.65080718486183   -0.68407352783986    0.96915566667267
C         7.97198516086162   -1.19740378952418   -0.41635462981435
O         8.50551473919871   -2.29497974250723   -0.56362800399077
C         4.47632428659285    1.17713786576970    0.86183029381386
C         4.88234715141325    2.37479985130436    1.55555244166811
C         4.93541648993503    3.45086007272570    2.07057649638717
C         3.15464680576619    1.11740334540797    0.38540775603712
O         2.37933409653551    2.21467722832558    0.69290292792852
H         1.20627714537206   -0.48552605096006   -1.82224013032053
H         0.90971248522896    0.95362869849508   -0.87718967489600
H         0.63032021436768   -0.66052669841718   -0.12554549831520
H         2.27536245684872   -2.14191828733250   -1.67883528915200
H         2.69260484598145   -3.03557187512991   -0.28038144684122
H         3.90956610544532   -3.71802634117723   -2.16991897456621
H         5.55847592876957   -1.85217101344424   -0.35624118049345
H         7.21140915852618   -1.50727692252544    1.53677202506044
H         8.60268029433187   -0.36391228347954    1.40688017285113
H         7.54871660011572   -0.63517233185828   -1.26589552312254
H         5.18854046406208    4.37336175011807    2.54630875873412
H         2.88354475834494    3.00048353019287    0.96289501104140
