28
 energy: -47.954599185139 gnorm: 0.111220889677 xtb: 6.4.1 (79825abcba525fcdf90b791dcacef51065a7a4e7)
C         1.17473018667777   -0.27811722848912   -0.44873277135928
C         2.65714599139811   -0.12179292855866   -0.18924454988111
C         3.57730980962596   -1.19216352991986   -0.08093927448162
C         3.08571776816890   -2.61043716059298    0.15795990322810
O         2.75348294574991   -2.68618791634288    1.54395956719467
C         4.98135147232485   -1.04014264753500    0.05299290091619
C         5.53714536878099    0.24657443439792    0.04842262048050
O         6.87283578859955    0.55108217751438    0.15624422275186
C         7.77373282594431   -0.41910516855529   -0.36683777372337
C         7.89025387563122   -1.67899940774201    0.46104590376399
O         8.48567628420411   -2.65561557724947    0.01081347098386
C         4.61086504126077    1.29178125188408    0.01505436719288
C         5.20594445332379    2.60283737315535    0.10172368514010
C         5.75443150062608    3.66355932730878    0.10010124555581
C         3.21922596996851    1.17854747425222   -0.15196904085990
O         2.45480826197913    2.32142664191466   -0.24770736934455
H         0.75766857884006   -1.15063787928187    0.05356249735881
H         1.12818717628468   -0.41145422230741   -1.53853856271583
H         0.55597445489959    0.57455168341521   -0.14539484366284
H         3.89463439513250   -3.29971238884211   -0.05194961187689
H         2.18824655583298   -2.88877129198485   -0.41056332606981
H         2.57807736593244   -1.82237642339110    1.95463347170914
H         5.51976730306104   -1.97553357556469    0.14512076345989
H         8.76281389223337    0.04285820130987   -0.33174823629580
H         7.53858897712027   -0.67527799661349   -1.40570794606508
H         7.63211210416596   -1.56800775070724    1.52782793120631
H         6.34817486621536    4.50775729356136    0.37614633180398
H         2.98730648850749    2.92998352998002    0.29147703401540
