28
 energy: -47.950670978442 gnorm: 0.118308359436 xtb: 6.4.1 (79825abcba525fcdf90b791dcacef51065a7a4e7)
C         1.15564977302854   -0.01364769854014   -0.64051372456762
C         2.59908520704838   -0.01131341338074   -0.18684343340570
C         3.46318082990562   -1.04791300939105   -0.61454044829077
C         2.94694938186129   -2.21337378481253   -1.44245463724241
O         3.98026157035883   -3.19414872260667   -1.35608529205979
C         4.80725775888290   -0.97825322089734   -0.16622596019195
C         5.37240672937121    0.18644425020769    0.37104028293960
O         6.64933800587689    0.37298124862973    0.84334296566296
C         7.40336605676110   -0.82222806345062    1.01483679395663
C         8.31946636803704   -1.15725461732403   -0.14050707750976
O         9.01279834471538   -2.17104204822911   -0.09008837007256
C         4.55546052367767    1.28425057160539    0.65208501214158
C         5.06012704649387    2.50008051320681    1.24163436406862
C         5.47035301264369    3.50672695763766    1.73595137162587
C         3.17317751990741    1.11083233247862    0.46077949104456
O         2.25644668636532    2.03084591557812    0.92213904065274
H         0.55064961081804   -0.67933593924882   -0.02539814385332
H         0.99478006448737   -0.39531581717705   -1.65838996684764
H         0.63931361838237    0.93513816317124   -0.45311257592542
H         2.74202068219389   -1.98793303949799   -2.48201663488715
H         2.01340293158746   -2.61967688620642   -1.03068778294196
H         3.76894170629861   -3.86219052765149   -2.03036604284055
H         5.41589874188372   -1.82980904261228   -0.44505237768190
H         6.67577103267066   -1.58038351160836    1.31271022967330
H         8.19677238627091   -0.66830175579207    1.75441875143407
H         8.39821345300669   -0.41482222762794   -0.95264823507962
H         5.85853482568843    4.35877730688615    2.25046798644054
H         2.73647155336340    2.86812426061235    1.03684197635586
