28
 energy: -47.949608823256 gnorm: 0.119636689061 xtb: 6.4.1 (79825abcba525fcdf90b791dcacef51065a7a4e7)
C         1.35114796675837   -0.09914247708041    0.53745112830040
C         2.80706653047109   -0.00681197273811    0.13607316531755
C         3.54550806458559   -1.19782625550915   -0.06470980229099
C         2.73246801667451   -2.47238270640146    0.09247600081972
O         3.34844803013472   -3.62208058280280   -0.48707264622915
C         4.95927867379429   -1.16519269735079   -0.17682082637171
C         5.53933861037459    0.10532995116058   -0.29459708934318
O         6.87613506710105    0.33539351279970   -0.51474557067131
C         7.73589545686382   -0.78513362935559   -0.33663119657175
C         7.87444726798556   -1.15021272915350    1.12412979671734
O         7.36609381513233   -2.10168283869943    1.71344942810769
C         4.79750276073904    1.28286406924337   -0.17352300685393
C         5.26640796894719    2.63817467000977   -0.32766675287996
C         5.62409709661565    3.77698885544509   -0.36131888260871
C         3.42545818429484    1.26825531028662    0.13414287288180
O         2.74383737168826    2.46233690382557    0.23024321516199
H         0.76044485143927   -0.62210156727766   -0.21429140100636
H         0.87956655330230    0.87646141857089    0.72028896398605
H         1.15517518331868   -0.80656516993498    1.35173893494857
H         1.76375399138915   -2.41677444966007   -0.38919744767679
H         2.61043101699862   -2.67746954565736    1.16447856121424
H         3.62440582221221   -3.27334949491057   -1.35184105148101
H         5.47002121753396   -2.12020522100379   -0.15612141880967
H         8.67941227104706   -0.37405304682320   -0.70229711439292
H         7.43306672738476   -1.63094620868320   -0.96357953874705
H         8.54707625236584   -0.48364401247390    1.69002432031349
H         5.95020527471324    4.75888013755814   -0.62767436020018
H         3.37431542033678    3.20144337339939    0.25913475766926
