28
 energy: -47.953325862187 gnorm: 0.124620506853 xtb: 6.4.1 (79825abcba525fcdf90b791dcacef51065a7a4e7)
C         1.19507297256241   -0.03912007725308   -0.54441949569523
C         2.67598276272372   -0.02491304480382   -0.23452856210329
C         3.49012298895269   -1.17281841954462   -0.08086124812750
C         3.00384134474333   -2.55470029393683   -0.48603810383152
O         2.64365384708569   -2.55529293809182   -1.86711660779699
C         4.85849833278921   -1.09180775735210    0.28433370154155
C         5.47212875525759    0.15621552875591    0.45887355408147
O         6.83240141241185    0.25538343661423    0.62693121514763
C         7.59450464503476   -0.67353323887426    1.39034866345918
C         8.40940653095331   -1.53948248786577    0.45634178623420
O         8.29824368188826   -2.76072155839486    0.54139579411367
C         4.66791645048301    1.27868989974736    0.24707220905814
C         5.33849304741357    2.55331919883649    0.32547104884040
C         5.61465573660188    3.70544018479905    0.47488030233513
C         3.27796782820897    1.22826515381953    0.04000177099795
O         2.48877817711889    2.35556423762324    0.11778040837395
H         0.54623166791098   -0.48854927304821    0.20694696883875
H         1.01463771227768   -0.54577291295094   -1.50273451934119
H         0.94658005185060    1.02462361028468   -0.63724981970067
H         2.15907832687419   -2.86960904491953    0.11455857659771
H         3.85010356474929   -3.23372568854660   -0.31601487164824
H         3.48286126209660   -2.52011403083361   -2.35710010553880
H         5.33573031071715   -2.04684269209320    0.46734529873880
H         6.94503797211934   -1.21878130268797    2.07869477818218
H         8.29281409003574   -0.02975219610447    1.93631411234291
H         8.91608737384304   -1.05144975189800   -0.39341040600019
H         6.12382215761324    4.62949572632356    0.64302661829320
H         3.10086483973845    3.00738048046888    0.49870188375163
