28
 energy: -47.951566338600 gnorm: 0.120443754555 xtb: 6.4.1 (79825abcba525fcdf90b791dcacef51065a7a4e7)
C         0.96740089885312    0.12082333973545   -0.42100936107841
C         2.45279775723920    0.00756342320672   -0.15625209636977
C         3.15591822543115   -1.20647248400272   -0.34562773796409
C         2.53502648860922   -2.59259182363165   -0.28729880375661
O         3.35784724030251   -3.33927619689503    0.60854810210533
C         4.57336801000188   -1.15030651706413   -0.35354318648600
C         5.34659624812418    0.01178062737338   -0.22610639787672
O         6.71636896110397    0.11396915457905   -0.18488049793890
C         7.47741175361660   -1.08352526352900   -0.06949107945598
C         8.77751511836610   -0.72684069010061    0.61520548824224
O         9.48239563029615   -1.60504367795439    1.10807383481296
C         4.64288861667842    1.20749468084206   -0.06292111715839
C         5.29371147599228    2.45733580714768    0.24501713459581
C         5.77637532466392    3.44380909540109    0.71392840912315
C         3.23718268613891    1.18169500952664   -0.03640291886626
O         2.49926515426702    2.33319255669079    0.13448935930413
H         0.36042795494492   -0.40932148781639    0.31251876713203
H         0.77477081212508   -0.21927094997454   -1.44806884833390
H         0.78193807003509    1.19941101442319   -0.48557716220851
H         2.61438477163462   -3.06395990788272   -1.25942165853428
H         1.48940239633626   -2.49585349367383    0.03434553728878
H         3.59074841691864   -2.72179369837863    1.32273496500281
H         4.95354604160384   -2.16254987822198   -0.41806744051209
H         7.58908414689932   -1.64696565201865   -0.99846200966306
H         6.97284000308136   -1.75962248081637    0.62941398151221
H         9.07378963161343    0.33473628638610    0.66270235462035
H         6.33604162571502    4.33359339675206    0.90487290578027
H         3.09679572421847    2.90167984636919    0.64868298722539
