28
 energy: -47.956179682181 gnorm: 0.116239101488 xtb: 6.4.1 (79825abcba525fcdf90b791dcacef51065a7a4e7)
C         1.11995083312591    0.02102105254137    0.45370320296976
C         2.60696984047927    0.08908176359953    0.18264922035815
C         3.35608328564128   -1.10172910970644    0.02477830237190
C         2.78753330124141   -2.48610840742983    0.29025997229761
O         3.71183066044392   -3.51766268681320   -0.05424456859704
C         4.75607444624948   -1.01406084158283   -0.18669321061778
C         5.35799279516563    0.24780691413133   -0.28645626746090
O         6.71472960143840    0.40073267068203   -0.13057705641579
C         7.56461949702640   -0.72443562739450   -0.32596693148726
C         7.83006170633333   -1.46992180598731    0.96247896401232
O         8.38545352233484   -2.56446536111497    1.02978845591679
C         4.62668865692732    1.43755353950204   -0.25091454572723
C         5.43476070215617    2.63218862195874   -0.23178836885376
C         6.11055544787156    3.59724094916562   -0.42658879011523
C         3.23536721850074    1.33263532259905   -0.07600075852809
O         2.44129183229079    2.45118395916483    0.05803760559246
H         0.87799313413637   -0.66442468757436    1.26558608762078
H         0.61513763598394   -0.38277630435705   -0.43496602522911
H         0.74022383751966    1.02847567411389    0.66048672786534
H         1.87609441663881   -2.60807864641684   -0.28237505409046
H         2.61288947157955   -2.65882474328194    1.36068592934353
H         3.92957915209894   -3.49530733128937   -1.00170237808130
H         5.33732637410940   -1.91651055951172   -0.04155174324537
H         8.49614722790089   -0.19938665661819   -0.54845839938111
H         7.20395727475290   -1.36688960108455   -1.13673449157025
H         7.80188939023560   -0.81695751024872    1.85119948600291
H         6.74989298685637    4.38563682832499   -0.09329952701546
H         2.94993195696684    3.24331889631839   -0.18367116214199
