28
 energy: -47.954757695407 gnorm: 0.109567461564 xtb: 6.4.1 (79825abcba525fcdf90b791dcacef51065a7a4e7)
C         1.01389995837810    0.17372297760996   -0.04558985514237
C         2.52309453422277    0.10549181463643    0.03810161160909
C         3.23964841057946   -1.11432808189522    0.09020384053063
C         2.54877453028009   -2.45927559241913    0.24526865527618
O         3.46060849027909   -3.54999929229190    0.37173545294063
C         4.65674519039314   -1.17717785221778    0.10656752161547
C         5.30731551297652    0.06274782876513    0.04402846824380
O         6.66185501132869    0.29045373160394    0.08636204508591
C         7.54487815813606   -0.73927512681400   -0.34540448035098
C         8.42646273436679   -1.25246550444326    0.77072557655346
O         8.89168820219443   -2.38978365608925    0.73772683911153
C         4.63555776918041    1.28518277972130   -0.03317443285089
C         5.40478082730898    2.50526546454867   -0.04707872043337
C         5.93710225112426    3.53927500817035   -0.31805821722119
C         3.23081894202423    1.33289134979487    0.00937803631761
O         2.65095244274915    2.58047712351251   -0.07403432264489
H         0.74343094770040    0.84407875103780   -0.86106692810895
H         0.52508665993025    0.56731927323363    0.85649948318743
H         0.49448914317523   -0.72527655112032   -0.39762546896940
H         1.75074054815906   -2.61988913689247   -0.46947150501897
H         2.14044148425353   -2.46669574796398    1.26475489634555
H         3.74166822493161   -3.92178051355998   -0.48171320750739
H         5.14117008561395   -2.12926787214111    0.28599004477637
H         8.24831446843142   -0.28062164457598   -1.04378627191180
H         7.07083820957113   -1.56961755196670   -0.88018103667002
H         8.70920586002780   -0.52144140981831    1.54702469040781
H         6.53783509760403    4.41893660633733   -0.40002034988032
H         3.39429838157885    3.20557287155204   -0.03787099634044
