28
 energy: -47.955549014499 gnorm: 0.120360847081 xtb: 6.4.1 (79825abcba525fcdf90b791dcacef51065a7a4e7)
C         1.59655406395248    0.31813649374433   -1.27852240227464
C         2.86129874912283    0.05126943883762   -0.49205504454529
C         3.70395511218841   -1.08625330189363   -0.50190314172664
C         3.26092346457823   -2.27079178892214   -1.34500881741343
O         4.42735031478944   -2.93880634804137   -1.82492357452612
C         4.91996467986965   -1.18304391990896    0.22220560726825
C         5.30545448704306   -0.10422313595187    1.02974007659017
O         6.56214884866808   -0.01936380552132    1.57922851628650
C         7.49634525971617   -0.91789164761832    0.99065522260964
C         7.51913680126084   -0.77168145929743   -0.51413883723850
O         7.50508831257300   -1.72962082169483   -1.28431482332331
C         4.46577105208390    1.00943389068001    1.10889647420742
C         4.95164744510992    2.09094134251199    1.93033726814082
C         5.22792288635502    2.94765654916612    2.71499175495822
C         3.24022619453004    1.06598547528455    0.42171401515654
O         2.50987354286645    2.23480267770704    0.41056002357462
H         0.90934539903438    0.82916786397169   -0.60463487452607
H         1.09377616914196   -0.63645540874280   -1.48730543467553
H         1.76341901791564    0.78003048577287   -2.25868915194876
H         2.59417132684047   -1.97199498999207   -2.14480286165981
H         2.71634360638588   -2.96552740292337   -0.69161893644966
H         4.87098679047905   -2.32029332080031   -2.43008370355490
H         5.32026339522116   -2.18955102970887    0.22850763097380
H         7.22990105149250   -1.92332235127975    1.32388092890986
H         8.50262059971292   -0.60848525494218    1.29371628789220
H         7.52456208558226    0.28601272017661   -0.82756156515959
H         5.46029192149234    3.60169905741180    3.52717110916914
H         2.91373280012788    2.79721049901258    1.09262366339561
