28
 energy: -47.949401357980 gnorm: 0.117223465336 xtb: 6.4.1 (79825abcba525fcdf90b791dcacef51065a7a4e7)
C         1.13029238237880   -0.19045778174755   -0.53464388485240
C         2.58853444279549   -0.04864941413780   -0.15682312869037
C         3.50376467052446   -1.02632816520305   -0.61575950944813
C         2.91836104847387   -2.17360455993184   -1.42278807923593
O         3.93532710167924   -3.15526348086419   -1.62087651511418
C         4.86832564349886   -1.01106524724153   -0.22830427861027
C         5.30198840897942    0.11283336675905    0.48818514431680
O         6.56678908156915    0.31364663664999    0.98655514213653
C         7.54942150085313   -0.71026194949771    1.09853042798855
C         8.24761932802475   -1.12838437296846   -0.17583037774473
O         8.95336763104403   -2.13066867785868   -0.08438785360558
C         4.46092096429935    1.19370725949788    0.76365412040227
C         5.02688055177155    2.33904525627819    1.43327328999392
C         5.47472730614743    3.41731864359097    1.68373589451061
C         3.09092146161160    1.12740338735016    0.45368126284994
O         2.41646111488082    2.32373020225750    0.57020785835010
H         0.71930109358853   -0.95797914816286    0.12074174547017
H         1.01608967216136   -0.42517396365838   -1.60211178569533
H         0.75097589981864    0.83231261430642   -0.42520642248758
H         2.46453328803682   -1.84928721198621   -2.35142529139493
H         2.10845020481963   -2.56757176341415   -0.79431580432188
H         3.63905013133322   -3.87830815852386   -2.19968288952400
H         5.56056370908252   -1.83775469087350   -0.33187241347625
H         7.07998095119332   -1.56197622055756    1.59565330526783
H         8.35135955247730   -0.28956267710244    1.71503336129317
H         8.01776282288625   -0.55642662695575   -1.09071317856599
H         5.82650399842946    4.36602604483142    2.02667860123169
H         3.05840359937917    2.92835780744231    0.97880420228610
