28
 energy: -47.950072261017 gnorm: 0.126335362748 xtb: 6.4.1 (79825abcba525fcdf90b791dcacef51065a7a4e7)
C         1.00876588274764    0.20452321495206    0.10169461966052
C         2.51540626689437    0.06692815496178    0.08094873938721
C         3.21619750305181   -1.15916372792697   -0.01761611797898
C         2.59314224262797   -2.54523077099391    0.01163990061328
O         3.43425274863184   -3.60232146795191   -0.44901787464968
C         4.63272384192792   -1.14563118121042   -0.09279024312239
C         5.41146835615071    0.01895074003869   -0.04949478546408
O         6.74728378070519    0.13052791766397   -0.35209522461839
C         7.82891263052100   -0.79430489212719   -0.38754966697108
C         8.15950906010512   -1.25466169448605    1.01426331663407
O         9.25037515134748   -1.72211000124791    1.33444994923704
C         4.67349175362336    1.20227980835450    0.03229034298452
C         5.34969211444149    2.47623169838912    0.04957829389541
C         5.59028268322839    3.63185053698542    0.23022440106039
C         3.26878530931361    1.26648299832659    0.03975745732361
O         2.53421730096708    2.42568187214923    0.16758883789167
H         0.71656705397571    1.04972285236552    0.72442299166581
H         0.58273234179100   -0.69360754883362    0.57017964454277
H         0.71674643751286    0.45268731917871   -0.92546459556178
H         1.67027154153563   -2.55018387081392   -0.55562862837378
H         2.48192768223883   -2.88007796151575    1.05166480749317
H         3.64954766127037   -3.52983218843064   -1.39452507825007
H         5.14728920679642   -2.09828881390696   -0.12443281115172
H         8.67731520009668   -0.20222125413875   -0.73765369227401
H         7.70047842224991   -1.68332656224547   -1.01469677824922
H         7.39542382946298   -1.09981202063819    1.79476030773809
H         6.04666798071081    4.55844034701998   -0.04280685840503
H         3.17119307584608    3.15752893827491    0.22483741287077
