28
 energy: -47.955883690339 gnorm: 0.110483393490 xtb: 6.4.1 (79825abcba525fcdf90b791dcacef51065a7a4e7)
C         1.26612753101541   -0.24823603381207   -0.84377314584445
C         2.67027688230872   -0.07316025016546   -0.30801098534240
C         3.51618809783275   -1.20193052720236   -0.18785868290096
C         3.07356716808737   -2.53821302675584   -0.76115740583677
O         2.76338045166932   -2.52386011193136   -2.15424441294752
C         4.82880099251741   -1.16934649399168    0.34913929171933
C         5.32141246888316    0.05594442704384    0.81878241780619
O         6.51622393812521    0.31343497365604    1.44690941901969
C         7.59079344343763   -0.61853208062456    1.39006299739632
C         7.96176710187941   -1.26665355205713    0.07529338636769
O         8.74662587376660   -2.21243384798027    0.05265339881622
C         4.62347810491131    1.22926856638934    0.52253243266647
C         5.17011067883542    2.51245728689376    0.89011744279602
C         5.92835420964515    3.37272814267412    1.22324283664705
C         3.30350910466948    1.14440976980716    0.04518683778414
O         2.58625845836970    2.30440603569883   -0.15389410306972
H         0.84853206570629   -1.22124938468577   -0.58610620854704
H         1.17492508479229   -0.21208061167093   -1.93830343633088
H         0.64657151532298    0.53751389193520   -0.39581753889332
H         2.16984522317004   -2.83242538974356   -0.24131686914098
H         3.86361615368759   -3.29013458572114   -0.63239523551542
H         3.44672621348351   -1.94567659961295   -2.53415606660116
H         5.32745144571021   -2.10703261090749    0.56227728399466
H         7.53221179632516   -1.30550193952313    2.23715413005473
H         8.38034651969444    0.08878051697573    1.66661898421878
H         7.49587449308228   -0.87005384113263   -0.84265702673359
H         6.47879167705219    4.25983498288865    1.45009591985279
H         2.98490338441886    3.09069789831775    0.25530388027241
