28
 energy: -47.954458160819 gnorm: 0.126804590469 xtb: 6.4.1 (79825abcba525fcdf90b791dcacef51065a7a4e7)
C         1.13043110466155   -0.12287795539451   -0.35739891837266
C         2.63021583328397    0.04683030911398   -0.25169691336319
C         3.58086639717673   -0.76083239318273   -0.92107660756645
C         3.09643738572964   -1.99044160849361   -1.67182646139063
O         4.00153222318222   -3.04853912389774   -1.98542842983271
C         4.97998696798874   -0.60512739602316   -0.74615166565083
C         5.57803913934348    0.37377372469857    0.05923940205126
O         6.92439307957102    0.59328093302390    0.22527252607512
C         7.84597598106863   -0.44005543311531   -0.10547607505038
C         7.64395252241374   -1.62377046655676    0.81338586952471
O         8.51051817896185   -2.48555318944407    0.94533560129238
C         4.63078131217414    1.06824368805839    0.81553301918446
C         4.93227296433215    2.21783578882224    1.63287015970111
C         5.09841097505635    3.22045975828814    2.25985904753878
C         3.24148644831023    0.98809286356702    0.61350917226985
O         2.32584307551806    1.83503068394458    1.19999582914049
H         0.69149752209742    0.63887058014126    0.28650300711796
H         0.87385569905962   -1.15193420565901   -0.06959002295810
H         0.80686459294190    0.03159525586398   -1.39342959844702
H         2.64877332101855   -1.75055500935287   -2.62867532856687
H         2.27512351751417   -2.37043709316196   -1.04958045622130
H         4.20441920021740   -3.41796474724876   -1.10909969472197
H         5.58467363440391   -1.32014171536435   -1.29061827953999
H         8.84451898375579   -0.06552382859303    0.13023717035063
H         7.75226750443947   -0.81290885933808   -1.13132568605705
H         6.60328722760782   -1.76644832757317    1.15048969354556
H         5.25150830176424    4.11585286435044    2.82220650945723
H         2.81289509682568    2.48809819491371    1.72999471530958
