28
 energy: -47.948229668842 gnorm: 0.115082208243 xtb: 6.4.1 (79825abcba525fcdf90b791dcacef51065a7a4e7)
C         1.14930299710613    0.17695211232002   -0.66798139145600
C         2.60093432796368    0.09297818047851   -0.24960011160597
C         3.35202332734480   -1.10698052467884   -0.25904042095414
C         2.56496506662315   -2.30380672881332   -0.76735327434011
O         3.20372775839812   -3.54357371004482   -0.46391750007818
C         4.73399766288628   -1.07408585163113    0.05946550455262
C         5.29433134983507    0.11063142929966    0.55649639183616
O         6.63159000792905    0.30330118181608    0.80756811643112
C         7.48218938040204   -0.74912914819253    1.24956906360370
C         8.34901038948122   -1.35780492595131    0.17047816552464
O         8.78278100102497   -2.49391125449037    0.34970343463647
C         4.59591198377713    1.30865965199202    0.38766293284780
C         5.39293630115323    2.51025662271216    0.42529478445590
C         6.17211107701782    3.40235811313889    0.27359337311670
C         3.20811388341405    1.30581270729835    0.16097741994036
O         2.53571720686323    2.50890237134731    0.17242350100581
H         0.65425032714529   -0.75675874675323   -0.40219935073635
H         1.10118439003720    0.21118574844864   -1.76531193592115
H         0.66068678514934    1.05583616907519   -0.23125053584506
H         2.46136874207353   -2.26249033408601   -1.84488248784771
H         1.50555174689087   -2.35719027272073   -0.48285944686021
H         4.06104297167508   -3.44988633896214   -0.91316550559961
H         5.30125238045913   -1.99630584125695    0.02678970945264
H         6.83504114277281   -1.50514959718579    1.69963019708041
H         8.11911056375373   -0.26618863475810    1.99874744719331
H         8.52203180309939   -0.79999813899086   -0.76541466714226
H         6.92818106582439    4.14943436100576    0.16571603301469
H         3.11150164954563    3.24301862138199    0.44474916557180
