28
 energy: -47.941793197210 gnorm: 0.118929877017 xtb: 6.4.1 (79825abcba525fcdf90b791dcacef51065a7a4e7)
C         1.21897749931355    0.05844980845228    0.56107114377059
C         2.65773323194442   -0.04470154642547    0.10426727461680
C         3.32287773100285   -1.28273305518499   -0.06598394972308
C         2.56346367054581   -2.58872571610712    0.10107616729782
O         2.56379373989093   -3.34931537730073   -1.10665578682418
C         4.73070267973031   -1.33483218893772   -0.23240433354938
C         5.49729075926581   -0.17438804321905   -0.40641776407628
O         6.79691412752418   -0.12571559994680   -0.85029775504786
C         7.83126791614456   -0.83452188284656   -0.17635442003055
C         8.20995754695690   -0.45682572055029    1.23794462893158
O         8.94610792040864   -1.23448221721301    1.84155810648145
C         4.82455604718970    1.04907740683026   -0.36030634218301
C         5.42950793838284    2.35452809250568   -0.25866510157209
C         5.66491017415480    3.44938288485985    0.15588346296847
C         3.46316620575849    1.11520982206872   -0.01444189140987
O         2.80498026447402    2.29668752597789    0.25121721092711
H         1.02386922336036   -0.58904165739355    1.41560070376116
H         0.49912398668688   -0.12160008749792   -0.24949323766966
H         1.05802729181966    1.03475100298396    1.03313876342372
H         1.51280237230779   -2.46987503732531    0.33664738967717
H         3.07977179867283   -3.11553423064132    0.91473569939256
H         1.94512956383513   -2.82018405097135   -1.63850646695299
H         5.18949549828014   -2.31383589895189   -0.16610035152785
H         8.77624493419439   -0.67422109354163   -0.70003836687109
H         7.47726458205579   -1.85930426012499   -0.01928405124055
H         7.82590546485691    0.47900534621297    1.67806328020811
H         6.06173526891934    4.43924806970010    0.09185968128310
H         3.42276419408131    3.04686198871497    0.23718316960733
