28
 energy: -47.953598509730 gnorm: 0.119924462328 xtb: 6.4.1 (79825abcba525fcdf90b791dcacef51065a7a4e7)
C         1.21833429305462    0.05073142513262   -0.73451476409499
C         2.66767237578856    0.04105634932881   -0.30017209049484
C         3.43256960959130   -1.13725328671369   -0.47522442999389
C         2.92181437858530   -2.39068810967813   -1.16679211815570
O         3.96303943775950   -3.36261061441975   -1.07552197353761
C         4.81331949658586   -1.09921537782559   -0.15201547772167
C         5.32888591266185    0.06845575929444    0.42703888374089
O         6.61654885029733    0.31640822800497    0.83796842757865
C         7.52398034846352   -0.77423850918808    0.95437934682624
C         8.17365286075186   -1.02501973904145   -0.38775940714126
O         9.15201082866503   -1.75616805544792   -0.52651839535606
C         4.54628367629857    1.19620217701371    0.68643764045495
C         5.03638563722016    2.29909090564279    1.47633366181106
C         5.14016378335176    3.31878579366436    2.08905232122690
C         3.19768565254990    1.21605867945837    0.28860967213338
O         2.42010477209855    2.32954293936490    0.52354332245430
H         0.67433155973762    0.51485430234363    0.08778943364837
H         0.91598877684849   -0.93220762890476   -1.12186430738031
H         1.14182113733256    0.73668716797161   -1.58629366082077
H         2.66458958255178   -2.11821298970761   -2.18320796026055
H         2.09839080386158   -2.85853486940567   -0.61070205927056
H         3.76356695147862   -4.11551228272782   -1.65770774585416
H         5.30855719697443   -2.05995265625131   -0.22314095895161
H         7.05309863147491   -1.58639802303585    1.51258192398392
H         8.33178008431867   -0.38270705485119    1.58233722043367
H         7.61921902268691   -0.46199289653061   -1.15755425678926
H         5.40982549964269    4.21676115611425    2.60122912556552
H         2.97627265678343    2.96012701014310    1.01104376105783
