28
 energy: -47.948904828475 gnorm: 0.119789080859 xtb: 6.4.1 (79825abcba525fcdf90b791dcacef51065a7a4e7)
C         1.68173946269567   -0.04251971510238   -1.33058919650698
C         2.92614177522193    0.05268970477987   -0.47517929900048
C         3.56732671988289   -1.09627583683345    0.04720442786384
C         2.92494093268675   -2.47373247574112    0.03344423975148
O         3.32230037903305   -3.27056882567935   -1.08202450365578
C         4.82058596606608   -1.00199098257825    0.70510471692757
C         5.49802617002713    0.22231748790353    0.78703229194945
O         6.80625913393149    0.45610372793290    1.13673197309376
C         7.69254107199918   -0.64060260746951    0.94119866945312
C         7.34646515026368   -1.65829566657304   -0.12220827262960
O         7.54652799180966   -2.86629339087280   -0.01389120387601
C         4.69022810390135    1.33536752183675    0.54178164266398
C         5.26629579195172    2.63751174126860    0.77214152177099
C         5.63662395064800    3.73111999108353    1.07685414702539
C         3.45163510141993    1.32100736385522   -0.12384525718501
O         2.71406962356763    2.44018802091050   -0.44494473343502
H         0.72964000777453   -0.14393698579988   -0.81024856733473
H         1.73837999922999   -1.00259994226262   -1.86224648719354
H         1.60125478771225    0.83848783834415   -1.97809575052665
H         1.84899107624217   -2.35273178902162   -0.00118511385362
H         3.16793299891400   -2.99443961545737    0.96937268702084
H         3.36006815165492   -2.57803528385876   -1.76361188479229
H         5.33930980464948   -1.87443072849149    1.08340328596971
H         7.65647719489838   -1.20868639619328    1.87334833129117
H         8.69969324951883   -0.20954285516113    0.94180213584480
H         6.97388999970812   -1.21558557689576   -1.06145038702199
H         6.08009813134510    4.68452753435248    1.26592287560682
H         3.30219401480984    3.17118017671427   -0.19122079733756
