28
 energy: -47.955799657444 gnorm: 0.117296568152 xtb: 6.4.1 (79825abcba525fcdf90b791dcacef51065a7a4e7)
C         1.31304660872793   -0.01678744542290   -0.91522996465612
C         2.67418090779563   -0.00487320155411   -0.25454887070673
C         3.54507922092069   -1.11564061380451   -0.36343682098602
C         3.03925037175507   -2.37847247989215   -1.04139588139798
O         4.07159048672640   -3.33546621561561   -1.27708655238272
C         4.90569625977180   -1.10348213084678    0.03775465746544
C         5.34939428483813    0.06545363426178    0.67122906306760
O         6.57689511523967    0.24972304363680    1.26089495419892
C         7.61425996833796   -0.69419024961342    1.01718284764904
C         7.74788760439565   -1.06237737391423   -0.44325678822289
O         8.31565537346364   -2.10959213312072   -0.74656725537507
C         4.56879696583247    1.22264141973773    0.72735593621021
C         5.12139256193226    2.35118436236285    1.43554245335896
C         5.28001971151839    3.36227037793231    2.05077754954630
C         3.23372698516613    1.17866190007176    0.28800192472557
O         2.43427683084750    2.29964626081366    0.35082355625411
H         0.66900988077930   -0.60001361829262   -0.25750879698834
H         1.44541534471103   -0.38034916212262   -1.94378383377392
H         0.82467494793713    0.96364333965415   -0.96176408375257
H         2.57343876808165   -2.18066472931905   -1.99920593223413
H         2.32663542868988   -2.81994962396980   -0.33187420825861
H         4.56331222480430   -3.04645431818001   -2.06466024658746
H         5.61272112011507   -1.92209276326403   -0.01993253418115
H         7.50437156287161   -1.51138236982199    1.73345399922571
H         8.44924938762345   -0.02508314273921    1.25225036057952
H         7.33388232852973   -0.30334430706491   -1.12842001815568
H         5.57627714152309    4.17162010849000    2.68211487813267
H         2.91448367984542    3.13699019114581    0.46427920109241
