28
 energy: -47.949251254771 gnorm: 0.115706017052 xtb: 6.4.1 (79825abcba525fcdf90b791dcacef51065a7a4e7)
C         1.17474130497003   -0.06669525436165    0.23683108146605
C         2.64296703511198   -0.03261831949485   -0.12714694555375
C         3.36274488583579   -1.22179095729823   -0.39531290597582
C         2.71271075619655   -2.59450213472161   -0.45323769301743
O         2.43346341265622   -3.20358113226354    0.80698328277464
C         4.75373159546227   -1.23206014002562   -0.67357837843275
C         5.50444656429472   -0.05680866163486   -0.53293849561879
O         6.81606389084030    0.22209687365850   -0.83342319234667
C         7.81828232819320   -0.70180610956896   -0.42299023561333
C         8.14527503489043   -0.70905237336778    1.05326356771120
O         8.86334964952703   -1.61179476411069    1.47804734094905
C         4.80949577951320    1.11768665670214   -0.23432481530875
C         5.54713868486701    2.30794628749481    0.11160030368596
C         5.75559577584171    3.47108280183227    0.28373640429705
C         3.41565160064947    1.15291174902960   -0.05174440493911
O         2.73029439556700    2.22567500310180    0.47659029382037
H         0.96374254011743    0.51596040615472    1.13322670238250
H         0.83864747238847   -1.10546282151829    0.36182924323177
H         0.58693623634481    0.46373919342579   -0.52148371225416
H         3.38414177295660   -3.27282485514541   -0.96565073691633
H         1.75181768461152   -2.63986053289505   -0.98311526758444
H         2.12235874010138   -2.52233550629881    1.42723222291832
H         5.23373043478703   -2.19690774436732   -0.78314820862291
H         8.69319847265839   -0.38051217228638   -0.99238880644229
H         7.55013981676238   -1.71798689697358   -0.73225481903198
H         7.75916480241195    0.09004709640369    1.70850332614747
H         6.08417758814843    4.29583128415800    0.87806478330247
H         3.29281469378289    2.95224790738116    0.79325792639753
