28
 energy: -47.950914267680 gnorm: 0.120855328435 xtb: 6.4.1 (79825abcba525fcdf90b791dcacef51065a7a4e7)
C         1.02875491185799    0.11825303215912   -0.46361104353966
C         2.49945239899468    0.02163933978451   -0.12149596788238
C         3.19079611503459   -1.20562931489611    0.01985538649075
C         2.60610551769268   -2.60723490872242   -0.04238838754377
O         3.53025672367746   -3.44180981329272   -0.73991436871168
C         4.56268499620909   -1.15266850622077    0.37692289169987
C         5.29410815427694    0.03552005166373    0.51032709564859
O         6.63309916362985    0.09883707425796    0.81283888887020
C         7.33400839201406   -1.13627041821787    0.71420081453386
C         8.78101345119125   -0.83536727192256    0.39492712261774
O         9.37938487418872   -1.67519090807836   -0.27414995210249
C         4.61333336618899    1.24618263044787    0.36063487909017
C         5.29601587670205    2.51675884065373    0.35169766809509
C         5.59696064414068    3.66976174112591    0.27431371560271
C         3.26033033116115    1.21293126792610   -0.02101303189395
O         2.62560483839620    2.43032551878137   -0.14245370477789
H         0.58043562997120    0.04308262420415    0.52678909948077
H         0.72711327164305   -0.72729059900554   -1.09740119127698
H         0.77508962445935    1.06839975023815   -0.94816440835410
H         1.66278310025434   -2.74190656583813   -0.55766967672446
H         2.72598328347267   -3.05760698536547    0.95206495056613
H         3.56596598613044   -3.01490625984649   -1.61287981693488
H         5.06066028847390   -2.11007041804324    0.47039759541012
H         6.91697711253324   -1.72630050019811   -0.10486707066314
H         7.21920012644965   -1.68720626138420    1.65412482314047
H         9.14551078627314    0.18827291766653    0.58540723166182
H         6.11631295217365    4.56918220023208    0.02387751860294
H         3.20622838474606    3.20923363906469   -0.17063344593853
