28
 energy: -47.954502937734 gnorm: 0.118559672656 xtb: 6.4.1 (79825abcba525fcdf90b791dcacef51065a7a4e7)
C         1.67607185666113    0.04377901065169   -1.44812320638794
C         2.82112518543452    0.06164064402920   -0.45925421828858
C         3.45607476562049   -1.16305933853126   -0.14133333665427
C         2.74029646849528   -2.44304225972583   -0.54075889196917
O         3.27640321001429   -3.62207635343115    0.05889215493541
C         4.72620755719869   -1.12162539537599    0.48908483399583
C         5.35079466409580    0.06610186460590    0.89376183568061
O         6.54508852958142    0.14885557778769    1.56847165438563
C         7.51741383656442   -0.80971575440703    1.16570840861747
C         7.54870650379747   -0.95100714658354   -0.33940273179210
O         8.07509807215511   -1.85168327533993   -0.98956475656840
C         4.65365991865015    1.24827525322232    0.63292627776215
C         5.35862871737386    2.47452467927904    0.91546928523776
C         6.13405836830972    3.36539525400405    1.09162321933504
C         3.40869665183903    1.27421335198681   -0.02035136205749
O         2.74104566062414    2.43399974743694   -0.35021605619603
H         1.99030296206376   -0.47674495332051   -2.35247204658967
H         1.44446246507597    1.06732738105825   -1.77420216577529
H         0.75843636275395   -0.45519238092449   -1.11512249095335
H         2.71087662849894   -2.68634210149068   -1.59595939752780
H         1.69803181907108   -2.35448694537650   -0.20611656930670
H         3.38526893889775   -3.42996006013197    1.00590326942594
H         5.18185930994876   -2.08276780777836    0.69383365013350
H         7.24679154582941   -1.82233149895734    1.47278448240558
H         8.51794901327562   -0.44159699098589    1.41787168794724
H         7.06072888667410   -0.10852513603925   -0.85813399528806
H         6.47790737816859    4.37417870066457    1.01728549064813
H         3.36418223093535    3.15630017035250   -0.16420912450908
