28
 energy: -47.944121097728 gnorm: 0.125196897154 xtb: 6.4.1 (79825abcba525fcdf90b791dcacef51065a7a4e7)
C         1.28280684486488    0.16301963902042   -0.73147405514549
C         2.70943216328898   -0.00203598377027   -0.25521268067710
C         3.51593810075384   -1.13996780366577   -0.49766692458694
C         3.10007956057671   -2.33461437568122   -1.34035125132320
O         4.10149160835245   -3.35136864856252   -1.36266432781041
C         4.78396958127664   -1.14337596361046    0.13830926689995
C         5.27535130889891    0.02243969485364    0.74162214408630
O         6.58658368207856    0.13910397686522    1.13592973347172
C         7.42597546636166   -1.00655509129367    1.03907692234706
C         7.99753279525417   -0.96439221166713   -0.36015377571164
O         9.05333820551109   -1.46152750821762   -0.74635018123121
C         4.51624637791292    1.17089099009562    0.97907801543390
C         5.00894195763433    2.44411275519222    1.44454186611779
C         5.37378182904114    3.55997972767946    1.66295543103187
C         3.18675334378618    1.07609071988123    0.53092715493983
O         2.29156189664203    2.12392159234992    0.51206450678081
H         1.18782691274015    0.59667900912935   -1.72668838989138
H         0.61894369575891    0.74744750348253   -0.07928431609437
H         0.80041840748376   -0.81256445703250   -0.59936084366775
H         2.83034902106479   -2.02081435174890   -2.34149231577581
H         2.11971248944052   -2.69080844385935   -0.99662269539809
H         3.82416769032838   -4.00735532428505   -2.02475449845430
H         5.39188925488419   -2.02709942933064   -0.01269352939406
H         6.88350534185150   -1.86120023400337    1.44923619642206
H         8.33688923698597   -0.80417986479140    1.61305318908031
H         7.37265380680290   -0.42453454781755   -1.09163184756278
H         5.85919939549216    4.47742611391324    1.91606446605082
H         2.67812651418415    2.80297896800914    1.09004767641140
