28
 energy: -47.950791980202 gnorm: 0.113723490763 xtb: 6.4.1 (79825abcba525fcdf90b791dcacef51065a7a4e7)
C         1.20171753395371    0.08324971519458    0.49350128335260
C         2.68558627237530   -0.06913296510703    0.24004296304416
C         3.32054374954733   -1.32817029648370    0.11442972781840
C         2.58556020526302   -2.65746869026196    0.16920731400388
O         2.56238238846561   -3.37978481911595   -1.06157918543144
C         4.68130190325229   -1.35530721313426   -0.28554774644514
C         5.42193509243904   -0.16623660139627   -0.33183075296067
O         6.75469006735051    0.02284958164262   -0.60829041480457
C         7.74980937292860   -0.94417427922811   -0.29033421127438
C         8.22333651347262   -0.56340593423248    1.09425581779919
O         9.05578261277363   -1.07899649037906    1.83736825922789
C         4.79298877014142    1.07531938205047   -0.21128525892503
C         5.44976574168479    2.33137742276633    0.05603740240631
C         5.85984108443719    3.44737828527329    0.16717698340447
C         3.40618629874214    1.13013640658559    0.01488282871411
O         2.75577727622789    2.34361493042388   -0.04923441917226
H         0.92720958764572   -0.36823374930236    1.44657068013946
H         0.61527074576307   -0.31191453371129   -0.34765687296999
H         0.97030986021858    1.14355568856255    0.64880279780947
H         1.55385342223793   -2.53324274638614    0.47524240166248
H         3.11785420029390   -3.28302031058754    0.89824187974509
H         2.26725596275245   -2.78046017379132   -1.76819140556000
H         5.09347848679720   -2.30954692630817   -0.59029741321387
H         8.62480768638945   -0.72138092458951   -0.90487782857365
H         7.37138367508267   -1.97191432326173   -0.26363639108675
H         7.75155235038364    0.40624179742642    1.32702866222534
H         6.26734538694329    4.36773445319164    0.52534878217886
H         3.35208292628618    3.09640385373367   -0.19871374580673
