28
 energy: -47.951665577928 gnorm: 0.120917392629 xtb: 6.4.1 (79825abcba525fcdf90b791dcacef51065a7a4e7)
C         1.28181816874472    0.09022527130009   -0.61914903073073
C         2.75472488624412    0.10025424035102   -0.27306629237312
C         3.58350552958736   -0.92028186577606   -0.79818855480073
C         3.19360723102561   -2.09974133573867   -1.67402546574887
O         4.15597567541756   -3.13124454228964   -1.45731984145284
C         4.96476708788716   -0.83316320244560   -0.48688805549341
C         5.38159317768143    0.24161776959206    0.31040137537099
O         6.68983885973587    0.38554492935460    0.70561975198330
C         7.65308717139323   -0.33111096526511   -0.05926635149823
C         7.87142760262159   -1.72540278932504    0.48348570764570
O         8.45262140676647   -2.64167404398933   -0.09416209173574
C         4.56446389030483    1.21952819297415    0.88272721999511
C         4.96843597222654    2.29308634427736    1.75724345088403
C         5.06732916845967    3.36980305383149    2.26406982979196
C         3.18265871542617    1.06478008761878    0.67285708568503
O         2.22956848586264    1.94311329577861    1.14170975800176
H         0.78158510164255    1.05636751200350   -0.55694569292312
H         0.81095458669171   -0.66279211695621    0.02805570193183
H         1.19162809130847   -0.24740068734631   -1.65827909641266
H         3.18199419570041   -1.90049945664107   -2.73876780906257
H         2.22323905816395   -2.49187607102492   -1.34122059199993
H         4.23833244282761   -3.35532846690019   -0.51466708160387
H         5.57372462843966   -1.60949481001377   -0.93389507618133
H         8.55113262869155    0.28883023488403   -0.10520163876231
H         7.27711710422293   -0.48121823374538   -1.07724606610862
H         7.46234724217707   -1.99930371095831    1.47070997794810
H         5.19540836482626    4.29736446161720    2.77848971783949
H         2.56341925312421    2.78506940196406    1.49422818072198
