28
 energy: -47.954652640451 gnorm: 0.119810741374 xtb: 6.4.1 (79825abcba525fcdf90b791dcacef51065a7a4e7)
C         1.30089694605274    0.16549829193007   -1.14932085641212
C         2.64212677681083    0.14671907771419   -0.44926519954274
C         3.37361397104022   -1.02770792116463   -0.14964472693881
C         2.67228175756040   -2.37505251780908   -0.20470206576043
O         3.39099811861936   -3.43100924951916   -0.84150296932378
C         4.64537909854098   -1.03788017479754    0.47875893005092
C         5.39942141940387    0.14014795292455    0.56952512096952
O         6.65486682560195    0.22155791245524    1.12238008589381
C         7.47140328689487   -0.91607136409254    1.37843001550593
C         8.05769115359760   -1.43837764284421    0.08623625225925
O         8.57450278306166   -2.55186684862644    0.02248863219605
C         4.67705199755089    1.31686022018530    0.35716544340740
C         5.40604596873338    2.56008716224913    0.41593423965284
C         5.99653958586858    3.59266409563443    0.52116679286893
C         3.33923152547419    1.32267909896643   -0.07594023679784
O         2.63015954578478    2.50447872332685   -0.09142033749242
H         0.61832151523243   -0.42846770292685   -0.54200842501227
H         1.36370670967072   -0.28186823540509   -2.15108918654190
H         0.96658900497021    1.20742536042026   -1.21672275461352
H         1.67159120059048   -2.37615839271227   -0.61958233393114
H         2.54650278863736   -2.79821310620511    0.80091112944227
H         3.83329517200365   -3.18139025071254   -1.67075211151275
H         5.04043269575034   -2.02199002695266    0.69965663053053
H         6.83866253152399   -1.70622390949982    1.78857739944226
H         8.18786366522544   -0.44425888876291    2.05978594232638
H         8.00369949206234   -0.76616360315589   -0.78680063225325
H         6.39707563112370    4.58308892522184    0.52680652107505
H         3.14883469773278    3.20442149860037    0.33947624249996
