28
 energy: -47.951929177809 gnorm: 0.114130380256 xtb: 6.4.1 (79825abcba525fcdf90b791dcacef51065a7a4e7)
C         1.12199214970845   -0.02104962545339    0.18723149137159
C         2.60238440333178   -0.06544277051604   -0.12227791622436
C         3.29868236045108   -1.24775116109546   -0.47076139424038
C         2.69497652793732   -2.63608590436071   -0.60604460128454
O         2.42181513709411   -3.22814394246694    0.66358658528609
C         4.71541243662072   -1.21069202428148   -0.53308063770983
C         5.38038792607110    0.02099859356246   -0.46018058228316
O         6.74279484914269    0.11845316119263   -0.61107576760715
C         7.52212412439467   -0.97647124237964   -0.14173562720911
C         8.52560085380598   -0.45889138067465    0.86397187289072
O         9.33311623269816   -1.20271592286513    1.41683731286865
C         4.67822953118806    1.20905082104287   -0.24322095093610
C         5.51567594721404    2.33147772028322    0.10223610211580
C         6.14721186037409    3.28435785609759    0.44742238181890
C         3.29679651080489    1.16218793153358    0.01528376868157
O         2.59684923111705    2.19712518406347    0.59722168969012
H         0.96352243621513    0.07528497613905    1.26107515027264
H         0.61972483710454   -0.93188350938564   -0.16735396963080
H         0.69465088691861    0.80810219828634   -0.38879240717304
H         3.39949230958833   -3.31089309405198   -1.07700237269053
H         1.84123081440640   -2.63342805935295   -1.29688055891424
H         1.61719617972932   -2.90263963425854    1.10202215209206
H         5.12653253827146   -2.15421859112987   -0.87082791324201
H         8.07301442709868   -1.33589641111919   -1.01366234977637
H         7.07887167543990   -1.87929643307810    0.29254806270240
H         8.50497385216457    0.62593486997331    1.06323739880912
H         6.63791594104137    4.22881110263945    0.54026550863458
H         3.12847012604519    3.01073402575619    0.59126015278210
