28
 energy: -47.939110420605 gnorm: 0.128812833656 xtb: 6.4.1 (79825abcba525fcdf90b791dcacef51065a7a4e7)
C         1.21372048935613    0.01913004344100   -1.02117747854181
C         2.62166996456751   -0.05521346748288   -0.47210613146593
C         3.29079160967706   -1.27944007750558   -0.23196009069463
C         2.48839730093883   -2.56641025408485   -0.33249246436037
O         2.45625475114593   -3.18965673280430    0.95111335501225
C         4.60322183874618   -1.29969815211530    0.30608976159552
C         5.38589964355183   -0.13881518267573    0.37192857207980
O         6.72366685679325    0.08933954078599    0.58813138809384
C         7.54046954301036   -1.04534004635511    0.32012142272910
C         8.94340600387936   -0.51891150822616    0.11777440331469
O         9.80654650609181   -1.07140283639802   -0.56101719718799
C         4.68991707119133    1.06012755364247    0.19956112482768
C         5.21170317263226    2.35490456830940    0.56259138678823
C         5.60012696227660    3.25549409800377    1.24379414660279
C         3.33327200327716    1.13081480778367   -0.16361304807690
O         2.66569154819243    2.33183446223263   -0.27113594106953
H         0.70406333865570   -0.93773597383275   -0.91076815361013
H         1.08862671467672    0.38833238542763   -2.04863201987287
H         0.71680898960595    0.75155902680167   -0.37422803909585
H         2.83155727119488   -3.42950716700445   -0.88999887374983
H         1.44221020698655   -2.44047541972201   -0.64196961066101
H         2.03343220960592   -2.52901452223138    1.52588586372533
H         5.05192122836989   -2.26267055371265    0.51748592579673
H         7.18982030339643   -1.70922383016938   -0.47311638344176
H         7.60830046502341   -1.57347651722735    1.27753419625236
H         9.19978731702627    0.34927763238245    0.74824760296842
H         6.10813678070623    4.18411905848488    1.38865267266222
H         3.21286271717757    3.13429878212406   -0.23549347810559
