28
 energy: -47.952227366155 gnorm: 0.120568048129 xtb: 6.4.1 (79825abcba525fcdf90b791dcacef51065a7a4e7)
C         1.40204055137399    0.15948560160503   -1.19596801682683
C         2.78287223688130   -0.01888434098211   -0.60367074814600
C         3.49230414764328   -1.23176379520901   -0.43117586885341
C         2.88384084687725   -2.62445355615793   -0.45174921894390
O         2.74497564801603   -3.07849136000743    0.89423716458987
C         4.82006421656955   -1.12216829241239    0.05608502502577
C         5.39701910970587    0.07799290891623    0.49346897444980
O         6.65569129941590    0.09932454259083    1.04456664089469
C         7.56274235171276   -0.98819334474335    0.89945647470288
C         8.18954228663488   -0.98059173601339   -0.47653992316554
O         8.87049089701963   -1.88563289009224   -0.95426968879652
C         4.66313460696182    1.26310020612096    0.40127247194397
C         5.30274197371744    2.43332034420351    0.95080540124633
C         5.43908277335637    3.51713174998712    1.43323233833347
C         3.38635191226845    1.19259155278193   -0.18373390936080
O         2.58736990276435    2.31557950353366   -0.16963213469835
H         0.94439552353829   -0.82950016592382   -1.19478860117411
H         1.38733644184662    0.54725808334554   -2.22409152701810
H         0.89673476171475    0.76530262040203   -0.43467396519516
H         3.52348619801647   -3.34249273918550   -0.95052973675412
H         1.90462335836382   -2.62012304920829   -0.94899913644895
H         2.39949464938215   -2.39579503349894    1.49436971081339
H         5.39464023039119   -2.02319966645759    0.23311666891296
H         7.11934728041424   -1.98208697403953    0.99164675283160
H         8.32997675085404   -0.94025715043937    1.67998314259566
H         8.05755755654302   -0.05889623556977   -1.06817972141702
H         5.98019299871230    4.37791347960744    1.76134331916901
H         3.22565586669642    2.97977570620459    0.14028737266403
