28
 energy: -47.949969496673 gnorm: 0.126736575190 xtb: 6.4.1 (79825abcba525fcdf90b791dcacef51065a7a4e7)
C         1.38316712038313    0.13477434732351    0.78948852865561
C         2.79580344966611    0.03697269185433    0.25636425346424
C         3.46858479373678   -1.20692326387846    0.19145797978520
C         2.89120850279305   -2.60268363957010    0.36094315120461
O         3.48151835919234   -3.57422377967588   -0.50205003782419
C         4.84524571946429   -1.13400857214035   -0.14301072189287
C         5.48859304676857    0.09936784518337   -0.31463651726655
O         6.83158620239907    0.18017161056055   -0.59438550918421
C         7.68752957827303   -0.93873625204480   -0.38969094462255
C         7.83147046525983   -1.09396377000783    1.10746885737313
O         7.40161659001731   -1.95324121270311    1.87420489599535
C         4.76604891159845    1.29481908720018   -0.33444226786804
C         5.38571354184477    2.56337968734639   -0.62985547703942
C         5.77422504482873    3.68735582065431   -0.52165105791529
C         3.37307642364893    1.26769460029246   -0.14399562663127
O         2.52180153419762    2.34550833638613   -0.02857609755858
H         1.15376542146818   -0.82834966672732    1.24479085241584
H         0.67825945203993    0.37480145327322   -0.01866605721708
H         1.27144611693132    0.99995674857491    1.45348752141524
H         1.82684050820525   -2.64981849775999    0.16496476900141
H         3.18009830875042   -2.92751917400759    1.36949046555161
H         3.47821950379145   -3.19407726373200   -1.39707417851825
H         5.37860854240017   -2.06285462266667    0.01855800315894
H         8.65322550495108   -0.54741749087852   -0.71714138666588
H         7.30190977322731   -1.74595840840815   -1.02203431581880
H         8.38080705935076   -0.22239604468695    1.50190417972250
H         6.17317796985502    4.65620674910576   -0.73037748147339
H         3.06723221397757    3.14291787755406   -0.13468482594378
