28
 energy: -47.952845048108 gnorm: 0.123668631885 xtb: 6.4.1 (79825abcba525fcdf90b791dcacef51065a7a4e7)
C         1.25331708199444   -0.10042699710986   -0.71020633071192
C         2.67796644460472   -0.00360417000559   -0.20987886035948
C         3.53891527753759   -1.08324415879443   -0.52175913848828
C         3.01751879938178   -2.31786435223934   -1.23876285096140
O         4.05001407428968   -3.29792057308191   -1.34150782251259
C         4.89748112846315   -0.95885429105802   -0.13290550378662
C         5.30519444655405    0.17782953280877    0.57863389280058
O         6.61127271634553    0.29311606241634    0.99008003774713
C         7.54192163145253   -0.78292886579212    0.93994388830244
C         8.12911734058369   -1.15842896932928   -0.40188430404696
O         8.94188117691658   -2.07185592084161   -0.52870062455996
C         4.50615888179967    1.30290284548638    0.79616128587400
C         5.01465313996679    2.46356599577275    1.48521413882419
C         5.07347037246646    3.55627936393829    1.96322015310316
C         3.17453241272880    1.19649227395615    0.35704201456257
O         2.30619625371652    2.22508525534265    0.65311944496072
H         0.87286387478883    0.74088754126449   -0.13143312736815
H         0.78062624569356   -1.04785683499214   -0.41599256236186
H         1.29835004031029   -0.06245963214717   -1.80494252969143
H         2.68816851557060   -1.90933890037121   -2.18646734032196
H         2.14969681553772   -2.73443725453988   -0.71008984197644
H         3.67270983409018   -4.07571360705948   -1.78678299031384
H         5.52217810655819   -1.82635392663972   -0.30764359556400
H         7.20845638022975   -1.72887164371934    1.37228168314095
H         8.43889170272415   -0.50771550390184    1.50551499652777
H         7.76495094339957   -0.52910746629642   -1.23153332354832
H         5.35789995316733    4.48806359375769    2.40171785435246
H         2.78312773916900    3.03607632299036    0.89693394047108
