28
 energy: -47.958203999288 gnorm: 0.117367158423 xtb: 6.4.1 (79825abcba525fcdf90b791dcacef51065a7a4e7)
C         1.06155918106672    0.15028735446784   -0.77874645541677
C         2.51337053269403    0.08288194448504   -0.35799908206376
C         3.25952619106653   -1.12017680157057   -0.35288986141557
C         2.51908038054649   -2.38317958979736   -0.76130093797773
O         3.37043136882080   -3.52820114225578   -0.79651966453250
C         4.63491456722585   -1.21255915641511   -0.01799661713222
C         5.25604831734649   -0.08371402606859    0.53379149858549
O         6.50630974957198   -0.06591085374694    1.10383426712372
C         7.51943039561539   -1.06383168446365    1.16890572602494
C         8.43678325596972   -0.93764244012777   -0.02643608021715
O         9.65881628325416   -1.05455801855103   -0.08954120605078
C         4.58665324471074    1.13902180684386    0.44217656272591
C         5.33033504179496    2.27458300314449    0.92996480336432
C         5.78935757374597    3.32088026447127    1.27714211386155
C         3.24162741638689    1.23074119768734    0.04233774569595
O         2.56890316126033    2.43349213302112    0.01985840868929
H         0.82492785458002    1.20809674696964   -0.66659425355584
H         0.46155065477209   -0.48919408478185   -0.11642106424526
H         0.90942103776636   -0.17649538436094   -1.81411298767635
H         2.10098337754746   -2.21902268320266   -1.74707771866001
H         1.75517449012728   -2.60176534673791   -0.00313790163677
H         3.95875866205435   -3.45741506077468   -1.56752601691528
H         5.02322015655525   -2.22177476013750    0.04554842400848
H         7.12896562092016   -2.08313268443850    1.20744807985470
H         8.12520784269293   -0.79860523449371    2.04232257735985
H         7.89885010910073   -0.53367769618323   -0.90074759846737
H         6.28231104618811    4.25911502227347    1.41173293292096
H         3.23282604476053    3.09722897536375    0.27140457598701
