28
 energy: -47.950889031943 gnorm: 0.121716456851 xtb: 6.4.1 (79825abcba525fcdf90b791dcacef51065a7a4e7)
C         1.18755332303549    0.14766810367204    0.72451883763742
C         2.62610539109486    0.04996519243135    0.26587940578670
C         3.43121853442271   -1.09675572327156    0.06352159920552
C         2.69084782016906   -2.41336354972722    0.23272763342162
O         3.41116856727044   -3.54807610373664   -0.24756254862152
C         4.80940031073614   -1.10994751568031   -0.27236845337614
C         5.52294890647134    0.09636304693976   -0.25714331668214
O         6.88307072731922    0.19317966041942   -0.42777310161417
C         7.72269784028819   -0.95507842737364   -0.37278763359499
C         7.76572968078820   -1.47784726808108    1.04536716438928
O         8.73266778222949   -1.60655473204974    1.79335200813431
C         4.75132230239121    1.25828096647675   -0.17900828477703
C         5.28269529227865    2.57560062936256   -0.42962921450831
C         5.80813682425591    3.64327662616867   -0.52938331773102
C         3.35243716154478    1.22794951444341   -0.03908556005846
O         2.55653243268591    2.34801915650054   -0.14703331346755
H         1.03504564492043   -0.61833078625515    1.48446641401406
H         0.51417507490204    0.13545757643754   -0.14383264842711
H         1.09360968293339    1.15075914584790    1.15683791726103
H         1.75413673687885   -2.26653743846181   -0.29122169174719
H         2.51063137269434   -2.49625700012623    1.31290995164229
H         3.01154625808304   -3.75702416127489   -1.10909211168631
H         5.25248126661071   -2.09337947346299   -0.37174744455726
H         8.67374776282301   -0.57776069269435   -0.75496319162376
H         7.29463893370428   -1.69111981238383   -1.06211849326555
H         6.76957167668272   -1.53033921591806    1.51642346927172
H         6.38271144913709    4.54216484089322   -0.58653440740970
H         3.08453222997568    3.13074994143673   -0.37760736977734
