28
 energy: -47.957965336260 gnorm: 0.119836196807 xtb: 6.4.1 (79825abcba525fcdf90b791dcacef51065a7a4e7)
C         1.33764819120676    0.00850713214719   -0.72300601222998
C         2.77130794284045    0.01476708804656   -0.23936506570208
C         3.50072976801837   -1.18065951247508   -0.03194342460059
C         2.94038234527668   -2.57745415608045   -0.24457248597444
O         3.02602099784058   -2.91304000340613   -1.62918845275192
C         4.88122248957460   -1.13378089052824    0.29120266724540
C         5.44851921084692    0.11364333941076    0.58561019562071
O         6.72662141477781    0.36625360489618    1.02271678504083
C         7.38350200132764   -0.82475859147615    1.44282579689501
C         8.01781801717850   -1.43329280102149    0.21252853851133
O         8.26590784754931   -2.62801826158711    0.06387208417297
C         4.71797268314582    1.28575346510377    0.37578745936972
C         5.32976193771931    2.59053140831123    0.43716847249282
C         5.69199729967494    3.71647852539754    0.60148631260581
C         3.37969108976692    1.28142499529830   -0.05590877745946
O         2.62695400005282    2.41685612130915   -0.26532719999016
H         0.69560646091396   -0.23838078362846    0.12219336123912
H         1.16963740735947   -0.79477611652319   -1.45384803548928
H         0.93829657960058    0.88247324798318   -1.25084911583583
H         1.90928383882116   -2.64590557822527    0.08047939086287
H         3.49750172003169   -3.27009928067508    0.40041112749285
H         3.78303813921687   -2.37492171882686   -1.91718884971728
H         5.37322403504186   -2.09834090715448    0.32109887497592
H         6.81432505588130   -1.48507908030569    2.10080546429481
H         8.18680934378405   -0.43898585355971    2.08004247425309
H         8.20959199707928   -0.65809318913660   -0.54856838028175
H         5.98320145019746    4.72181378505420    0.81573716553586
H         3.21832841632961    3.16180576663121   -0.06547227714743
