28
 energy: -47.948412839485 gnorm: 0.125003627712 xtb: 6.4.1 (79825abcba525fcdf90b791dcacef51065a7a4e7)
C         1.17982986297662   -0.08314500715923   -0.63001069431155
C         2.66531798711845    0.01493474744818   -0.35976370959145
C         3.58998775831160   -0.99436440627195   -0.72090873617519
C         3.00793824804090   -2.26068646985300   -1.32744184941893
O         3.83469350009296   -3.40609742505124   -1.53145827428468
C         4.91162195667419   -0.88808077524814   -0.21655966974420
C         5.40459585194065    0.25842365956987    0.42146297118635
O         6.75271832053205    0.42982497143019    0.62544029287501
C         7.42176057032923   -0.76153790212150    1.02485324395618
C         8.26175581133443   -1.24461643194549   -0.13589873801053
O         8.72179453400751   -2.37768386388031   -0.26055345835264
C         4.46776753245899    1.21745608924491    0.81411478854939
C         4.91472099036507    2.44351648111680    1.42853135407666
C         5.23599171586106    3.46405840452404    1.95886240093403
C         3.13429664667457    1.13151747937992    0.37611028105987
O         2.34062040648823    2.22062815154839    0.66522793604123
H         0.82771363180441   -1.11396958593367   -0.66080118463098
H         1.02181871357944    0.46151068901946   -1.57128871744879
H         0.68761517788321    0.55991206230530    0.10898804757570
H         2.55273720279168   -1.98433341117388   -2.27080256750309
H         2.21915883384608   -2.53913298097760   -0.61579748225793
H         4.60657303291717   -3.27210304254906   -0.95540449214072
H         5.57942243049738   -1.70555382861157   -0.45969680911629
H         6.76047510424285   -1.51545395148533    1.45755973519467
H         8.23790403434617   -0.47187414769301    1.69580267555929
H         8.33022672948050   -0.47742515543194   -0.92565154471241
H         5.52879924927815    4.26511354867550    2.60227259105082
H         3.02739795062774    2.74616409839221    1.10880909420745
