28
 energy: -47.960604222965 gnorm: 0.108318960771 xtb: 6.4.1 (79825abcba525fcdf90b791dcacef51065a7a4e7)
C         1.17335320847756    0.01872772363201    0.28109291295427
C         2.68595812432799   -0.00574866986891    0.25360998517331
C         3.47998365710439   -1.16877747080404    0.10865428886378
C         2.79409148455921   -2.52514478302542    0.10122059174291
O         3.51638750572840   -3.57023279660421   -0.54931204458425
C         4.88936009605258   -1.00778226445959    0.11959678277765
C         5.50206239478105    0.25003637531902    0.03559248024467
O         6.84766954030225    0.48181209543477   -0.11945839606433
C         7.67412931827414   -0.67233332945950   -0.22625869190071
C         7.86794702086246   -1.50804813497822    1.01885876879439
O         8.51603403775457   -2.54590778494131    1.13653117222719
C         4.69872064701429    1.39237768132106    0.07114975814877
C         5.22120714503210    2.70325555922264   -0.22735691025302
C         5.65755424035088    3.74182569234186   -0.62351975611555
C         3.30219395955516    1.26819043371559    0.17917164085921
O         2.48210713784745    2.37283434522694    0.09615069222280
H         0.67636528963932   -0.34974520786789    1.17817925743820
H         0.80409738042503   -0.62637531603292   -0.52829813395408
H         0.90240778675195    1.07366794159976    0.15616674081065
H         1.78634773587882   -2.35676075253395   -0.25879024576093
H         2.80382624143542   -2.88501227437420    1.13878685583007
H         3.72894038432772   -3.27526315356322   -1.45120153398338
H         5.51375480361348   -1.88804198110955    0.02680988482668
H         8.60124995128159   -0.19549766507057   -0.55183182910868
H         7.28725178092808   -1.31246882929503   -1.02670899940307
H         7.21422528699960   -1.23803737909849    1.86545330091877
H         5.95665855651510    4.75619210283643   -0.77517613844515
H         3.00024356624554    3.19502526112763    0.10849578241838
