28
 energy: -47.949860024517 gnorm: 0.130061576963 xtb: 6.4.1 (79825abcba525fcdf90b791dcacef51065a7a4e7)
C         1.31977399675251    0.06980502839689   -0.95238139108288
C         2.74754407443370    0.09228717723495   -0.45208627004733
C         3.57450575737057   -1.05182426043044   -0.55823761967361
C         3.06957813213819   -2.35648343456666   -1.15250033510757
O         4.15639977563751   -3.28059312655760   -1.10830515214374
C         4.82110487265965   -1.10453734606331    0.11673878349738
C         5.25322655022097    0.03344407959779    0.81160402870280
O         6.51934675929745    0.05080033421139    1.34551201274469
C         7.50342542247267   -0.94629931810452    1.09277659150419
C         7.87070279344943   -0.93644145672639   -0.37395862146044
O         8.62518840889771   -1.65228073076980   -1.02920042314818
C         4.51151747075731    1.21623978916319    0.86087778978567
C         4.86147889872068    2.43545042454136    1.54757395979678
C         5.50945536486118    3.36653268032462    1.92064776056827
C         3.23341676587758    1.20768626662455    0.27456435801543
O         2.38493393146991    2.29120252484784    0.19878534764961
H         0.88354971278258   -0.84128404091286   -0.54353142474953
H         1.12129691049489    0.06735794437241   -2.03322482082871
H         0.77051199969678    0.87625351381817   -0.45251247726863
H         2.70792876667529   -2.18507494796208   -2.15914690682321
H         2.23255727198987   -2.75702643616717   -0.56504436814570
H         3.82021125374090   -4.12947400467630   -1.44292284675505
H         5.38566240854711   -2.02401206058388    0.02094540572520
H         7.40788617342248   -1.93609579340185    1.54454862469840
H         8.39914489730826   -0.57628812211052    1.60360603454103
H         7.45702094984965   -0.01011406505704   -0.80727734013343
H         6.03387631596442    4.13931255094117    2.43948898120708
H         2.77538172556894    2.97512951416136    0.76835541321570
