28
 energy: -47.951442966680 gnorm: 0.111810542985 xtb: 6.4.1 (79825abcba525fcdf90b791dcacef51065a7a4e7)
C         1.21219695845747   -0.00683966911562   -0.16424147076474
C         2.69701944297600    0.06064381954052    0.11873593040316
C         3.46753206561332   -1.11795560969661    0.26481257561433
C         2.70860284636200   -2.43312025540702    0.33266550505376
O         3.34379537915946   -3.51026627622236    1.02070627936398
C         4.88031870201291   -1.05407184823187    0.15375433267008
C         5.47476695093027    0.21525843978451    0.15307135002986
O         6.81974671977304    0.48167116197667    0.24512047531450
C         7.69298644364181   -0.48526937495939   -0.32844043155678
C         7.79290823914218   -1.84425430498754    0.32690499180453
O         8.40644151851088   -2.83244235994932   -0.07068463602980
C         4.74930718080175    1.40776941311491    0.09657667275406
C         5.21733974663582    2.76690948874314   -0.02251555539490
C         5.59661579023215    3.89181220679550   -0.15180309763561
C         3.34667408289974    1.31829813896223    0.05193038318563
O         2.63850422828037    2.46157131531814   -0.24988902412850
H         0.60596902603698   -0.35900081291923    0.67002672833389
H         1.04945816677027   -0.76242585531070   -0.94541191773646
H         0.88277050718599    0.96762501321362   -0.54346914279612
H         2.34199445260378   -2.79416260417873   -0.62062099570413
H         1.81820529616331   -2.36799824967370    0.97227042598178
H         4.22691967253834   -3.71504200121821    0.66892672898582
H         5.53993764225072   -1.90983363078645    0.07687811188102
H         8.62495552709699    0.06680679316873   -0.18855362092250
H         7.60609913002492   -0.62752364111821   -1.41120665716460
H         7.37571371870679   -1.79981284445758    1.34717647745543
H         5.87887956038293    4.87173625325194   -0.47035967463692
H         3.27045926372456    3.18075268079874   -0.41730067586917
