28
 energy: -47.950914091431 gnorm: 0.122637303401 xtb: 6.4.1 (79825abcba525fcdf90b791dcacef51065a7a4e7)
C         1.19021518710004    0.11904156972880   -0.85814987866808
C         2.62617312663095    0.16942248900756   -0.38400369742387
C         3.37984372710168   -1.02772814975851   -0.32982167445959
C         2.75607398235822   -2.33350822155397   -0.79467149093845
O         3.57737556084274   -3.47430384467259   -0.54736140094919
C         4.76584815039341   -1.04231605888580   -0.02789436644208
C         5.38237810583631    0.16953497664560    0.31251196380918
O         6.73818738008106    0.36387689269863    0.42400996462968
C         7.45502578754600   -0.69284964177227    1.05326783372208
C         7.98773023942397   -1.79131536255790    0.16113496215749
O         8.76944065814958   -2.67889806374825    0.49601105932503
C         4.67322499548281    1.36258951504149    0.47153619537490
C         5.27211902546080    2.63772960356100    0.78112122843095
C         5.80640900824282    3.64900687772668    1.12437653943985
C         3.32479852343591    1.31346446168262    0.07566906123064
O         2.57192434696467    2.46565089598374    0.00273103065707
H         1.08713010048524   -0.55013097564834   -1.71203205953506
H         0.86766143801898    1.13540790047716   -1.12381927156029
H         0.60481826621603   -0.25808132584611   -0.01138804739789
H         2.53697148146058   -2.26614407542862   -1.85342765682616
H         1.79180982167975   -2.50483910682101   -0.29769716016960
H         3.76511523418560   -3.46417787617846    0.40670450268439
H         5.51862068701191   -1.81748887655178   -0.10389404233998
H         6.73288932958115   -1.20613809372163    1.69199836273927
H         8.33716492064062   -0.18336712568973    1.45628954580121
H         7.56043572917879   -1.71760321995524   -0.85324471930895
H         6.15530037959521    4.65656076440325    1.19154980930467
H         3.11961754961485    3.18279089804517    0.36378232722773
