28
 energy: -47.960550808464 gnorm: 0.110235612129 xtb: 6.4.1 (79825abcba525fcdf90b791dcacef51065a7a4e7)
C         1.19883392382559   -0.09888361990764   -0.64390997232580
C         2.63752549090707   -0.03432770963058   -0.17987640770318
C         3.47815012542913   -1.14577589877555   -0.42919116729035
C         2.93838146013194   -2.30210085663619   -1.25490177773633
O         3.92927469765832   -3.28071804311276   -1.56723526686291
C         4.86493415202469   -1.07533985775062   -0.13893268299747
C         5.30054022755356    0.11544167498075    0.45844095701138
O         6.62924154981809    0.39586066168775    0.66900532539978
C         7.50912276150093   -0.66302141439151    1.03104335489481
C         8.33363690952595   -1.08690507138306   -0.16344444268313
O         9.01035768051947   -2.11296969815627   -0.17946351404361
C         4.49122752972905    1.21760222464259    0.74448472995750
C         5.02863735076749    2.43358628683701    1.30401367051477
C         5.35708711156299    3.47436539451979    1.78864891301459
C         3.11451439602829    1.13019242048261    0.47172390026755
O         2.30470151593651    2.23094285762599    0.65123607205513
H         0.66772888178056   -0.96847130612073   -0.25754499325395
H         1.12860557856359   -0.09771303560930   -1.74058142406420
H         0.74911288687795    0.85155687436989   -0.33353811636206
H         2.58857423482282   -1.84971644448965   -2.17495161528538
H         2.09033055589859   -2.72632006777074   -0.70083422532896
H         3.43485319137125   -4.06815001292815   -1.85199610615423
H         5.51522416535397   -1.88032047438041   -0.45903335159580
H         7.03246501550843   -1.50640080859223    1.53545526453927
H         8.22716165883316   -0.23078077792937    1.73656199972623
H         8.47381418733504   -0.31432010720652   -0.93832702758647
H         5.66718075745595    4.46694493346003    2.03365923398309
H         2.73865700859709    2.80964395230448    1.30039193640942
