28
 energy: -47.955165914657 gnorm: 0.107329310142 xtb: 6.4.1 (79825abcba525fcdf90b791dcacef51065a7a4e7)
C         0.98343371645487    0.03622221789345    0.24726382187873
C         2.47653466972584    0.01947820921573    0.00293369134001
C         3.20784756903943   -1.18379380809210   -0.14349921191953
C         2.39396855981113   -2.46302059638928   -0.25034213435469
O         3.08740114087657   -3.63616872578884   -0.67459198156382
C         4.62499858665093   -1.20147125945311   -0.20474992933101
C         5.35684115479154   -0.00773329536654   -0.14178399988310
O         6.71924525938793    0.11578355189674   -0.27223707257957
C         7.54899323757573   -0.99539451040806    0.04915884783124
C         8.62120769629073   -0.50143976380416    0.99396935596473
O         9.33008351930317   -1.26343648329554    1.64808883886203
C         4.63536040479434    1.18660711073451   -0.20947807638173
C         5.40388636626340    2.40713899568823   -0.19647939156356
C         6.14832870330807    3.33013651422128   -0.05557904258488
C         3.24788534482960    1.20817259905576    0.01817490205017
O         2.55938640612960    2.39319062171949    0.16437524809851
H         0.60519730941337   -0.80685520628088    0.82492365326071
H         0.52456945881136    0.03179515798358   -0.75125791538882
H         0.71233016905872    0.88917745337883    0.88042024945629
H         1.57719473440133   -2.34643005191046   -0.95233616065667
H         1.95829316606678   -2.74804954251526    0.71665764665869
H         3.43703514031547   -4.15322261387502    0.07106330785065
H         5.21139610334726   -2.11203823284134   -0.18628179809179
H         8.01554365398566   -1.41882074534063   -0.84300913936787
H         7.09130781669927   -1.88270539486935    0.50012650807433
H         8.75189207186226    0.59366622751724    1.01935986970449
H         6.82667845125611    4.14553182087372    0.07238338605475
H         3.12093168956883    3.17908929328576    0.27229110214651
