28
 energy: -47.954360039049 gnorm: 0.120122745980 xtb: 6.4.1 (79825abcba525fcdf90b791dcacef51065a7a4e7)
C         1.11875186706718   -0.26711439164219   -0.33015860185683
C         2.61155601276069   -0.03388932205589   -0.24972303154862
C         3.64028349820635   -0.84173464470378   -0.79123055500664
C         3.27989519202924   -1.97475691374548   -1.73812888533612
O         4.26403528759107   -3.00258635696552   -1.62791033317723
C         5.02968370903783   -0.65807643419225   -0.57164485806829
C         5.47528996869878    0.48974270336049    0.09806766911098
O         6.81786432768084    0.60656887434768    0.36688932988659
C         7.76574040385084   -0.40031586570144    0.02894290118248
C         7.52697393841234   -1.79953519187163    0.54997829147328
O         8.27424362067371   -2.77361148168299    0.48849958454029
C         4.48923181440295    1.28785628453980    0.68310610991215
C         4.92795516993358    2.35685068108886    1.54639747957982
C         5.28904536433484    3.21377254961826    2.29557736221073
C         3.11417609583297    1.06386344095210    0.49224761318880
O         2.27379719968991    1.92999751958622    1.15801642973906
H         0.64634491383012    0.35393131233794    0.43054312214295
H         0.84640735692946   -1.30847517147419   -0.10875883767665
H         0.66674520508699    0.05739360956961   -1.27477564611739
H         3.31544576299861   -1.64284214894912   -2.76870018240562
H         2.33372807295198   -2.37182805156895   -1.34666314401790
H         4.32324967223872   -3.20868328762373   -0.67943356442426
H         5.61524203798371   -1.35480319102670   -1.15903621373906
H         8.65592697011484    0.06787740301584    0.45471951645753
H         7.86936060044086   -0.42674037662644   -1.06134741846944
H         6.51916685847291   -1.90103693329981    0.98701662017833
H         5.59770398870209    4.04555790079630    2.89077921833415
H         2.85087276246990    2.64976587430554    1.46384804482682
