28
 energy: -47.946532358914 gnorm: 0.111969375688 xtb: 6.4.1 (79825abcba525fcdf90b791dcacef51065a7a4e7)
C         1.14572854880578    0.35386619198580   -0.44491810024620
C         2.64553078508052    0.16915777204187   -0.36873347868527
C         3.34889609455838   -1.05544025400905   -0.46753438759772
C         2.52456207459785   -2.31785795099702   -0.65991578948461
O         2.98580211718023   -3.52905326981172   -0.06210584478610
C         4.76012694543529   -1.04906399227985   -0.32342339160635
C         5.46267964041048    0.11652163131594    0.01183536902245
O         6.79838030985915    0.15684475702644    0.33229928665717
C         7.31649635839709   -0.98093713108691    1.01310900067195
C         8.40630325863652   -1.71345679359010    0.26341713382905
O         9.47902339734012   -2.16093100322061    0.66348533464016
C         4.75742700932170    1.30901913368094    0.19109605228360
C         5.38425644895723    2.48755014676459    0.73758366542061
C         5.55708381989028    3.60239793231082    1.12901289572802
C         3.37978908045790    1.34827540034650   -0.08810044570626
O         2.71252378513189    2.54775465503642   -0.21331863303985
H         0.78943487201004    0.01903145470664    0.52897805807178
H         0.75168095609250   -0.28294308174096   -1.24917061607999
H         0.89333178720936    1.38925293719450   -0.70218643153644
H         2.31504980419142   -2.51377338790853   -1.70453543182326
H         1.59180784578026   -2.17106493614710   -0.09905530017525
H         3.70859575469625   -3.98873559630641   -0.52237965706893
H         5.20785162394299   -2.02815654902832   -0.44282067246464
H         6.54204348918379   -1.70803911946168    1.26701496065104
H         7.63103754521059   -0.62107646133619    1.99887394366050
H         8.27417026486855   -1.57482498182361   -0.82300005538469
H         5.57759583018345    4.61229342495850    1.47699655213073
H         3.31247001973757    3.31154438604917   -0.17718797082427
