28
 energy: -47.949667101985 gnorm: 0.120128804185 xtb: 6.4.1 (79825abcba525fcdf90b791dcacef51065a7a4e7)
C         1.29192538543070    0.03000302384864    0.67584380121034
C         2.77182674645317    0.03810762655596    0.36095601110858
C         3.50896456187021   -1.16341524207589    0.23020683737114
C         2.84495336862283   -2.53064717974293    0.23147038112274
O         3.36456840997251   -3.52784521737742   -0.64756857954065
C         4.90089090486551   -1.13677032366969   -0.04221246221281
C         5.48992611922637    0.11940496223491   -0.24128471582092
O         6.80718885309653    0.21640130327639   -0.62053394230918
C         7.66134593567466   -0.87976729115600   -0.31178837107205
C         7.84876440847305   -1.04492916604501    1.17948554913705
O         7.58586256547388   -1.97611673614791    1.93763366178314
C         4.80858347712552    1.33767719613046   -0.18515133789193
C         5.49243315421482    2.50968857881194   -0.67427111858433
C         5.69500374276968    3.64369054702621   -0.98887631908703
C         3.44558341330720    1.26742263005167    0.15348287883373
O         2.66251723792993    2.39804500372606    0.24389012427528
H         0.99768894897351   -0.99970297772289    0.87749617480929
H         0.63035197245271    0.39906268181214   -0.12023235708369
H         1.09191246969997    0.55351508554102    1.61810002163492
H         1.78593868383195   -2.53310181991083    0.00345652063560
H         2.91682530151802   -2.97644202872492    1.23259200515398
H         3.27739312079789   -3.23398975259978   -1.57041195868493
H         5.34305247975089   -2.09572117017803   -0.28354575143195
H         8.62076433775844   -0.49544432298644   -0.66496675949343
H         7.41615044896007   -1.81478219568223   -0.82734116591211
H         8.17296248551608   -0.08573264339295    1.61745570189735
H         6.03047079605435    4.46657065075237   -1.58194669794451
H         3.31685863479491    3.11472771556578    0.29698338060886
