28
 energy: -47.953350248754 gnorm: 0.111445637445 xtb: 6.4.1 (79825abcba525fcdf90b791dcacef51065a7a4e7)
C         1.04838742258583   -0.08585429317811    0.40425076505017
C         2.52307954275149   -0.00853934555275    0.07465467090455
C         3.24475244515120   -1.18370257385330   -0.24519577992304
C         2.40050283786836   -2.42414454841359   -0.48764564226253
O         3.23584537302738   -3.57859482264773   -0.56864335184229
C         4.65671702618658   -1.12081761317905   -0.36677971752589
C         5.32317033256179    0.08885689364748   -0.12783171306301
O         6.68913030577038    0.21773229693840   -0.05060583236543
C         7.50173978314791   -0.95093509032381   -0.03121243351096
C         8.81763160087734   -0.84174256634294    0.70554244159308
O         9.63317505531142   -1.71696692029583    0.98818609195732
C         4.59726150954375    1.26550785280824    0.07245522895623
C         5.32677909387984    2.48587781145904    0.31535531947284
C         5.71903991265322    3.60205950436774    0.47734790375984
C         3.19333064317585    1.23793580649528    0.14726092964887
O         2.46702246039761    2.40649088439155    0.22867651022971
H         1.02750213171857   -0.14934924630300    1.49193886764689
H         0.40401894890100   -0.87433875100080   -0.00891165505220
H         0.58510788578170    0.88382226667343    0.18741840971803
H         1.75127461078545   -2.41504974187834   -1.35478371626742
H         1.82705859826270   -2.66045796182083    0.41869910667976
H         3.61270903636162   -3.71885213954895   -1.45402018243931
H         5.20681158975194   -2.00399936096304   -0.66797948965286
H         7.79741233747762   -1.19029706356920   -1.05503193494299
H         6.91827276426835   -1.81849304886963    0.29601502152505
H         9.01139122215811    0.19124857467807    1.04075390847349
H         6.20952842414357    4.54119606648823    0.61462793629414
H         3.05658212687984    3.01908240221276    0.69959762638050
