28
 energy: -47.957181984009 gnorm: 0.111936893859 xtb: 6.4.1 (79825abcba525fcdf90b791dcacef51065a7a4e7)
C         1.31643905621565    0.03462448483043   -1.04916308631875
C         2.66318932979701    0.07548419886736   -0.36074299628160
C         3.51118597004503   -1.05443408776394   -0.45190812138367
C         3.01633672965328   -2.27963275413563   -1.20307261808747
O         3.94393588237275   -3.34811233196744   -1.01592448340547
C         4.84538002097618   -1.06307657530514    0.02999716779643
C         5.38673079223459    0.12550671119199    0.53869914487331
O         6.63368825560439    0.33063053970481    1.07855159336048
C         7.66007659496178   -0.65184563884423    0.99045354186017
C         7.89732130134974   -1.13052376414223   -0.42407260967487
O         8.70052528942037   -2.02074400043850   -0.69497391049302
C         4.53321733560047    1.19389257912647    0.82441298483570
C         5.11058659244072    2.27381483554264    1.58658873373795
C         5.25576766725151    3.26987062364308    2.22905822866987
C         3.21932815380599    1.18491525805297    0.32342134885276
O         2.37593740743272    2.26541494536495    0.46793959651360
H         0.68875586409193   -0.68635546285874   -0.52596624509826
H         1.42302037450534   -0.32572488982554   -2.08183457986419
H         0.77075830094644    0.98021159529756   -0.94909132424530
H         2.86034113179847   -1.99698863194671   -2.23713554023648
H         2.04174767497954   -2.54908830053105   -0.77445505581476
H         3.82466690678494   -4.05692271548990   -1.67086968736004
H         5.37358586079783   -1.99864055766489   -0.10803893001588
H         7.46911425463439   -1.45271170016768    1.70813712161710
H         8.56143117801871   -0.13531007438783    1.33818808146659
H         7.34433640521351   -0.56215766139203   -1.19098061845850
H         5.59249349904900    4.11171266234883    2.79414226792005
H         2.75203673631008    3.14031024965218    0.66216410490933
