28
 energy: -47.951652750057 gnorm: 0.112048986922 xtb: 6.4.1 (79825abcba525fcdf90b791dcacef51065a7a4e7)
C         1.17738692602622    0.06081391514155   -0.46903149113734
C         2.68418415467665   -0.04983288630792   -0.38749963049236
C         3.40057182706103   -1.23185963856845   -0.08135231985335
C         2.65617675865639   -2.50953937523023   -0.43298581105282
O         2.61726938059483   -2.70267481984794   -1.84659754506127
C         4.75377588388640   -1.14547388907583    0.33548991382824
C         5.37352357857271    0.10514336069147    0.46370020221185
O         6.59300953226301    0.35049884018492    1.04771567392892
C         7.41313555628013   -0.70745843897316    1.53208478142517
C         8.17732719986413   -1.51316450308659    0.50585337392890
O         9.16967537384739   -2.16120489681991    0.83189781879465
C         4.73090780713236    1.28031544318747    0.06673479354165
C         5.44455463883471    2.49372050989112    0.38114783515977
C         6.22802238320105    3.24856433673636    0.87344939375899
C         3.39580033707989    1.17538678039458   -0.36204957042310
O         2.74396025137657    2.33420318354214   -0.72526039943974
H         0.72084495183066    0.22244378032374    0.50717464589043
H         0.83773905192139   -0.87844829874257   -0.92734086417960
H         0.81340918845371    0.90932993017829   -1.06018088692209
H         1.66333095289203   -2.51046399282871    0.00033255044482
H         3.15142186887924   -3.40804232341340   -0.04110845625600
H         2.26691121607319   -1.89763830983172   -2.26463563256781
H         5.21477059527489   -2.11860481572471    0.45311394220617
H         6.89417296080068   -1.42631005343520    2.16993505009791
H         8.15466161702500   -0.09564355897082    2.05743232221773
H         7.84984730054677   -1.53115523544820   -0.54743360731837
H         6.81798606653181    4.07813239042455    1.19773626403947
H         3.37564307148946    3.06830344222462   -0.64347231783309
