28
 energy: -47.950843344814 gnorm: 0.111226661568 xtb: 6.4.1 (79825abcba525fcdf90b791dcacef51065a7a4e7)
C         1.35729825446442   -0.01049852432341    1.03297360999131
C         2.68846340617089   -0.06601311640398    0.31586447755853
C         3.32893423419011   -1.28925096926096    0.00343693488602
C         2.72315711635203   -2.68268768052801    0.04348496108367
O         2.88046154287648   -3.20551587267845   -1.27523381804338
C         4.70098765889853   -1.30612799884094   -0.35651546293823
C         5.41791091926703   -0.10680093379535   -0.46698815785482
O         6.72596850457714    0.13560706434656   -0.81143421415306
C         7.69695654119406   -0.68490714207993   -0.17078422716389
C         7.59695128457124   -0.67794210265881    1.33794121853605
O         8.38937030532700   -1.30136312532593    2.04110162335354
C         4.72631835350621    1.09984116293974   -0.33553262438319
C         5.58773329873108    2.25424448224849   -0.41179854027612
C         6.17191735422493    3.29369821029597   -0.34670881584488
C         3.37634700813369    1.14527736275693    0.05548006505424
O         2.75411174886576    2.34953868081026    0.30498157902506
H         1.27103816073098   -0.86901709835780    1.69858480457658
H         0.54369476054200   -0.07273751680049    0.29690477647754
H         1.21809730843379    0.96595213103623    1.51160085901739
H         1.68793800447108   -2.77472274929564    0.34903263874317
H         3.34999025057137   -3.29524108612613    0.70530191153896
H         2.68104557386708   -2.44140624164091   -1.84264919695792
H         5.18757408926704   -2.26258506169408   -0.50402434228519
H         8.66915515835499   -0.24733375393826   -0.40802285318937
H         7.73770726714440   -1.69303460398764   -0.59761766300964
H         6.90832621936561    0.08664862763729    1.73565562790112
H         6.84259656609559    4.00652221719506   -0.77504701484754
H         3.34687191052545    3.09309054998133    0.10402966872040
