28
 energy: -47.955183134957 gnorm: 0.107899352648 xtb: 6.4.1 (79825abcba525fcdf90b791dcacef51065a7a4e7)
C         1.28048993613660   -0.09947495072934   -0.76643093979079
C         2.68876270636585   -0.01765087606051   -0.21925577062607
C         3.41326071761705   -1.19450761626372    0.08772233875044
C         2.76124455827691   -2.53407411598175   -0.21339585313448
O         3.14413109547207   -2.85169553790758   -1.55116554799200
C         4.76796700608054   -1.14494276862570    0.50568808614716
C         5.40270335189118    0.09982778578834    0.61625312753714
O         6.66298778953011    0.41792243610371    1.06225570926173
C         7.51633835405441   -0.67816723312243    1.37350157322647
C         8.01173640047901   -1.38437829339691    0.13166875489299
O         8.68698600795463   -2.41113448382093    0.10292986107379
C         4.72276332052134    1.25814814779252    0.23214184099353
C         5.45588871907447    2.47922678458105    0.46016229978391
C         5.93392120549654    3.55606610104794    0.65477411151621
C         3.35118478599085    1.22693238044049   -0.07636408520965
O         2.59152038723432    2.36966929258169   -0.20572947406179
H         0.47011158137776   -0.39003282459957   -0.09830202528319
H         1.16667439378133   -0.88092186363179   -1.53063536843930
H         0.95341743688254    0.82519790957971   -1.25624775182666
H         1.67865210819991   -2.50067765390103   -0.19373077087624
H         3.15686739749524   -3.40251611615266    0.33014272860243
H         2.91668109658756   -2.14039352502344   -2.17398688148226
H         5.23353924846297   -2.11588229794315    0.62339218451052
H         7.06888238621140   -1.46659126575903    1.98267600430518
H         8.44262315306740   -0.35865682831059    1.86347907859312
H         7.80250217968055   -0.78705349556332   -0.77188220873046
H         6.29778065441823    4.54218004774272    0.84605364473758
H         3.11382302593143    3.18931275475577   -0.20527141853790
