28
 energy: -47.949543857347 gnorm: 0.124746495474 xtb: 6.4.1 (79825abcba525fcdf90b791dcacef51065a7a4e7)
C         1.19158308644542   -0.11453257307846   -0.45384713333265
C         2.68355878183730    0.03655851654976   -0.25258099637898
C         3.56055587360200   -1.01179383521035   -0.62130604368957
C         3.19196129834357   -2.27967416479785   -1.37420254857651
O         4.32179674708596   -3.12083295076093   -1.60450012216715
C         4.89405093370381   -0.90584203382377   -0.14913412977275
C         5.29245950390850    0.27298896096585    0.49599894737815
O         6.57732218944900    0.33813319810159    0.97901393535815
C         7.37462410796808   -0.83984411217041    1.03534190109352
C         8.02129258026992   -1.27105324897298   -0.26164715022323
O         8.66038529828484   -2.32099465966332   -0.27578088857185
C         4.49610446017641    1.40276708298070    0.69844897318976
C         5.03393461598625    2.51244113441290    1.44668785222874
C         5.50760266499827    3.51252216493586    1.89551769903571
C         3.14821245819557    1.24103666151672    0.33183143173304
O         2.15412514185967    2.16783198526906    0.56099051944214
H         0.78701876230047   -0.84849243411531    0.24268990218495
H         0.80500011109122   -0.51577179930519   -1.40104423420704
H         0.73175968499468    0.85648588846831   -0.23566734669526
H         2.76124961334440   -1.88605547937657   -2.28692388103750
H         2.41296029104582   -2.76300858547888   -0.76948079497714
H         3.99339742711893   -3.96410447761071   -1.96036173478365
H         5.48763525186842   -1.80412481764069   -0.26779768032217
H         6.91909669563207   -1.71400955494197    1.50571658084913
H         8.25596102823712   -0.71424357435089    1.67380734319448
H         7.84824268633531   -0.67609461993367   -1.17436735924095
H         5.93227643069236    4.46162387141982    2.14099766501169
H         2.58843908929170    2.95582751449496    0.92848215980372
