28
 energy: -47.949213059570 gnorm: 0.122500697454 xtb: 6.4.1 (79825abcba525fcdf90b791dcacef51065a7a4e7)
C         1.20707911528742    0.11318877758903    0.41572028419774
C         2.69954033984822   -0.04177784291632    0.22111071943211
C         3.31161276234239   -1.26695656401361   -0.13725941047813
C         2.47433839623494   -2.53550028417001   -0.13928164573811
O         3.17582824642250   -3.70279079904861   -0.56643273650691
C         4.72114182807718   -1.24718958868349   -0.29606189569625
C         5.46295650099315   -0.05917754842844   -0.24214577753097
O         6.79869252939698    0.00528743285183   -0.55848875095027
C         7.64280787034048   -1.08929543045915   -0.21811928159925
C         7.85278913634210   -0.94497716806313    1.27231090486161
O         8.90447808079842   -0.61573077741128    1.81688726223486
C         4.78233424028522    1.15587389325395   -0.13274159399470
C         5.39916538988183    2.44827993681613   -0.30509339053060
C         5.87846068168761    3.53186135766175   -0.45375085884885
C         3.40400848275736    1.18542433191276    0.14424735426939
O         2.77005219261641    2.38170907431405    0.40246293170685
H         1.07534088150620    0.74839312456573    1.29133074862964
H         0.71232136574193   -0.83629960809671    0.66332528893017
H         0.79033739654583    0.60745577472192   -0.46968544652923
H         1.69247508491450   -2.39537617495958   -0.87587070939246
H         1.93972813264212   -2.58925917970863    0.81855183278499
H         3.71899880660693   -3.42387787914663   -1.32324433374777
H         5.12537614791955   -2.24971507389345   -0.22625790417005
H         8.56400930089767   -0.99126537204831   -0.79665261442474
H         7.22620848804018   -2.08493763087949   -0.40602868681957
H         6.90043688675061   -1.06772618207896    1.81539293278562
H         6.25708447210087    4.50524146513078   -0.22885652392899
H         3.45695893571461    3.06916549074721    0.38910381693175
