28
 energy: -47.951186069731 gnorm: 0.115662837092 xtb: 6.4.1 (79825abcba525fcdf90b791dcacef51065a7a4e7)
C         1.41370237656287   -0.04419546415599   -0.93149088506456
C         2.80357340736706   -0.02716457750896   -0.33374804784321
C         3.48297074526377   -1.22705566184896   -0.01311533296344
C         2.84046759143639   -2.59104235304961   -0.20537980681553
O         3.02734151562834   -2.92418554890315   -1.58059141436589
C         4.74375796482508   -1.07074420054538    0.61804507698666
C         5.35561735287237    0.16434873783643    0.87248975643899
O         6.62866461640596    0.34455004943044    1.35756449738021
C         7.52387838794004   -0.75957736085118    1.28017784747277
C         7.85209093919927   -1.37060853984298   -0.06340670439117
O         8.68243629672703   -2.26536858315864   -0.20813846151093
C         4.66049314321151    1.31108403265240    0.48086946149805
C         5.24203387625135    2.56308545827151    0.89896275175483
C         5.71049835143819    3.63654590302817    1.13176186224830
C         3.42638850788758    1.23751190859444   -0.18916850524402
O         2.90596408665243    2.35432714850540   -0.80687003905022
H         1.11574551225648    1.00248989658540   -0.98810072212411
H         0.57229721436366   -0.40875034777364   -0.32588478707497
H         1.32732119069231   -0.53558483288619   -1.90770377409755
H         1.77728136186669   -2.56632171000947    0.00085399231026
H         3.31400904859569   -3.35048899245226    0.43112817924381
H         2.18645029610354   -3.16099676401616   -2.00768961562695
H         5.23511064002006   -2.00231817554520    0.87118103162112
H         7.28955737080831   -1.56029950787974    1.98506116205630
H         8.42887357138913   -0.23663405450857    1.60832781438643
H         7.42429721836124   -0.88470450693217   -0.95664240577789
H         6.19471230191471    4.46953570642899    1.59335378969329
H         3.55383597974994    3.04355788282791   -0.58362427448156
