28
 energy: -47.944524968177 gnorm: 0.120636695644 xtb: 6.4.1 (79825abcba525fcdf90b791dcacef51065a7a4e7)
C         1.24173133587409   -0.04069729639342    0.66553303612123
C         2.72611029213096   -0.06985480765004    0.37381915212366
C         3.44667256524082   -1.25373921743472    0.08514560858017
C         2.83302944239660   -2.64378884600078    0.04720119640415
O         2.74996150784002   -3.24247914106576   -1.24577322777326
C         4.76727390028590   -1.19330260918905   -0.42938397506450
C         5.47667985249880    0.01533245818309   -0.40673323448601
O         6.76377933097538   -0.03719640571060   -0.88530925336456
C         7.59086525482574   -0.91085007087781   -0.12428896287216
C         7.96299477722896   -0.54952933858638    1.29601698278931
O         8.61517602954193   -1.30017711535480    2.01865365489240
C         4.77739957845353    1.16675093790281   -0.03685685211679
C         5.50270838728608    2.40058034769138   -0.21599736340197
C         5.99462203709046    3.43843519880289   -0.54287653693972
C         3.41922382547163    1.16531885204208    0.32747069884619
O         2.69376470251612    2.31430057387834    0.55817204096298
H         0.89611426456429   -0.85090268664716    1.30713203178133
H         0.65764581034765   -0.16735897383714   -0.25665055822682
H         0.94985218047203    0.95675000470958    1.01456350622952
H         1.86053814982615   -2.65124919332995    0.52439453041780
H         3.46477375182425   -3.42497835143988    0.49080598881013
H         2.28568687083653   -2.67974502767688   -1.88871167466998
H         5.27925634493502   -2.10173993563913   -0.72255787929542
H         8.52822602912029   -0.98795391036060   -0.67956597767888
H         7.05620180498944   -1.86398577702085   -0.04789717797960
H         7.36359234169580    0.33147769833863    1.58154025292636
H         6.42401413282254    4.18161092867795   -1.17904832101713
H         3.28707584352140    3.06048931785073    0.36896339282049
