28
 energy: -47.953488376230 gnorm: 0.119669994588 xtb: 6.4.1 (79825abcba525fcdf90b791dcacef51065a7a4e7)
C         1.20195938753127    0.13048460796777   -0.58922885119091
C         2.67446932605600    0.08742444878546   -0.24399220507781
C         3.49876730241193   -1.06338094834623   -0.22654280320016
C         2.92497328327208   -2.43794337972448   -0.52915505005195
O         3.81289447405624   -3.29029378294300   -1.25179462855169
C         4.84004462302735   -0.96579441479461    0.22493606554136
C         5.53713212102586    0.24273060385018    0.35949040794815
O         6.85833719240337    0.43149063147104    0.68691392805574
C         7.50768937398567   -0.73787784595938    1.17416421408046
C         7.78846037639690   -1.78809011794309    0.12320091294164
O         7.94352918534326   -2.95998741204753    0.46028640211242
C         4.71773422833115    1.36311043961830    0.20168650443121
C         5.20292287034221    2.70690397962792    0.39995428571326
C         5.73488448464281    3.75227782531850    0.62396788060753
C         3.32525899274867    1.32027471139881    0.01049073023504
O         2.53460102605942    2.42541480225871    0.24113853543775
H         1.15166600299494   -0.28736371948877   -1.59441866555103
H         0.86233357229165    1.16825547656969   -0.71295271419256
H         0.62307053447010   -0.35718726433711    0.20385416472837
H         2.14043538367119   -2.28065161265281   -1.25940708772375
H         2.45918834417088   -2.89422405245314    0.35458442615105
H         4.48366200650536   -3.56178377282720   -0.60221432463731
H         5.34885288206927   -1.89968392424228    0.43060539105376
H         6.97905608069813   -1.16544784312345    2.02894694901065
H         8.48724436926262   -0.35353385839854    1.47899218984710
H         7.69115520832677   -1.40485095133598   -0.90667270156771
H         5.87898549456818    4.81085906176105    0.61741493340666
H         2.99780661554880    3.27984719688200    0.23990349941339
