28
 energy: -47.955794253699 gnorm: 0.113628205911 xtb: 6.4.1 (79825abcba525fcdf90b791dcacef51065a7a4e7)
C         1.22128756431374   -0.03900145198612   -0.28601622926527
C         2.70425981807439    0.01618008277985    0.00907077087372
C         3.57579185621891   -1.09005709174347    0.15327868945594
C         2.90756055042839   -2.43708613933561    0.37512391257112
O         3.70754304549893   -3.38830686299005    1.07677935311492
C         4.96214337249287   -0.95055288981762    0.41964162466173
C         5.52838018414123    0.32192661590585    0.26235093509692
O         6.89084173026854    0.48207809692808    0.34278349724731
C         7.55487319372015   -0.54993528385394   -0.37867636747081
C         7.74435465993580   -1.84425729250662    0.37969646067568
O         7.82350818869585   -2.91845572827699   -0.21262834100445
C         4.69059474716517    1.42287185822308    0.06844093229491
C         5.26938109335599    2.74111022237537   -0.01961122596023
C         5.62003435449733    3.87919290760613   -0.10782581576207
C         3.29872571024427    1.29885557549158   -0.08871676859639
O         2.55969154255151    2.43930305240980   -0.31867566529439
H         0.66334306325172   -0.39357999132429    0.58030080369326
H         1.12139924149434   -0.69107138596806   -1.16490688932126
H         0.92362448355174    0.96519660308764   -0.60989859976356
H         2.56529911365022   -2.87472699501801   -0.55484169982909
H         2.06947257701601   -2.16780090777411    1.03181040293581
H         4.23792167574668   -3.84670230931017    0.40286348900311
H         5.49546464669583   -1.88517103257397    0.54370885788256
H         8.49812389598128   -0.02780781158361   -0.55355862461047
H         7.06642574285194   -0.80561204303991   -1.32536367937144
H         7.68027698228881   -1.82890397557247    1.48089514558329
H         5.96911227610223    4.86964270462350    0.08853119819347
H         3.11447474219099    3.23098708934240   -0.41901333273386
