28
 energy: -47.942715922240 gnorm: 0.111266660968 xtb: 6.4.1 (79825abcba525fcdf90b791dcacef51065a7a4e7)
C         0.96211696139793    0.19753329749591    0.00898925052894
C         2.45992966141101   -0.01535128419512    0.03276497546675
C         3.13197228298268   -1.19290781106944   -0.37447452612204
C         2.35190620557585   -2.45005885359750   -0.72276145052885
O         2.76135190474061   -3.61619006333607   -0.00889491590575
C         4.53651688224129   -1.22476438541076   -0.57099618391364
C         5.30083689984649   -0.09279112136465   -0.25632174890003
O         6.63928918046046    0.11434691523421   -0.48882695994741
C         7.66087402123829   -0.87564758463801   -0.43620544469657
C         8.82807442083335   -0.31333278678657    0.34337606135491
O         9.61949865854102   -0.95922565057250    1.02710576944631
C         4.64572513028443    1.03563366491706    0.24272937595234
C         5.46279080983776    2.03495217174485    0.88636389497466
C         5.96733745588372    2.97140665228736    1.42900319475814
C         3.24546020315688    1.12438819912678    0.33631756202900
O         2.69707721192061    2.33481023282999    0.70214215355177
H         0.43225296067029    0.55458367858650    0.89176462526620
H         0.34812528957402   -0.62293629872996   -0.38783000759408
H         0.83879857042630    1.01445981956970   -0.71166355274038
H         2.38295951151084   -2.65447200331189   -1.78613316385092
H         1.32937477041281   -2.37411768530425   -0.32930811269450
H         3.55881595854774   -4.08358274584239   -0.31086449891938
H         4.99591601708007   -2.06546300135122   -1.07647971095143
H         7.88217675070452   -1.11087550049775   -1.47957293195365
H         7.37539421660726   -1.86047746131384   -0.05048563369388
H         8.78216432439122    0.78849814434160    0.31437471659011
H         6.73161464713890    3.69098607047773    1.62771935326587
H         3.37786956892583    2.94631795005304    1.02954975752353
