28
 energy: -47.948849450535 gnorm: 0.123822538887 xtb: 6.4.1 (79825abcba525fcdf90b791dcacef51065a7a4e7)
C         1.46868043012455   -0.05831575616407   -0.88681775900914
C         2.83073122145996    0.05763127302514   -0.23820233159604
C         3.61822725806435   -1.09907906922609   -0.02373580022545
C         3.06229804061044   -2.46187599288941   -0.40316021626333
O         2.99936233285598   -2.72862879854273   -1.80387262480964
C         4.95504710146609   -1.00554194744796    0.44160781197380
C         5.52499711796476    0.24345796122396    0.72396360264734
O         6.88253842162008    0.35402877076749    0.90637815400103
C         7.46404307263311   -0.87433642854015    1.33001127003560
C         7.66125720883462   -1.75644906752536    0.11787022538660
O         7.97818523018467   -2.94412072215370    0.12085372326741
C         4.76987119559079    1.40586099302693    0.55026847316782
C         5.32627224003390    2.73496447009513    0.61660878087848
C         5.51013500975546    3.91437871185852    0.58272283150629
C         3.45197690081584    1.29269262906396    0.07306248121259
O         2.56886625184526    2.34573011645482   -0.03134388488364
H         1.10419594396138    0.92901623946385   -1.16941251976401
H         0.73017219264624   -0.67053469486557   -0.35070656194451
H         1.59076003895887   -0.62637147756178   -1.81650915917564
H         2.05889662594441   -2.67336692610078   -0.05392442756841
H         3.59998307377522   -3.17813658743086    0.23245656771614
H         3.93981556426445   -2.84083427709978   -2.02420900174215
H         5.47397778391328   -1.91484837831960    0.71947126734909
H         6.93852031479222   -1.30946018921497    2.18289809169054
H         8.44482614603092   -0.56030848213629    1.70366806112037
H         7.48182895938329   -1.14722231633275   -0.78414334785640
H         5.82165660550531    4.91547899349946    0.78803916668404
H         2.73078344866405    3.10012296552381    0.55966365444276
