28
 energy: -47.957288422998 gnorm: 0.109979273773 xtb: 6.4.1 (79825abcba525fcdf90b791dcacef51065a7a4e7)
C         1.10742567007989    0.08888695392013    0.10834676795938
C         2.61370575573256    0.06099888356751   -0.03190512837458
C         3.39337537186501   -1.11098793161064    0.11871655210732
C         2.73618610088888   -2.47964317963306    0.19027558820275
O         3.55394284677540   -3.53960019562411    0.68512732208423
C         4.80532839177386   -0.98429686563143    0.17086242525815
C         5.46835085276242    0.24751105960693    0.08357537044712
O         6.83151613117122    0.42033214272465    0.10181422756645
C         7.59011989399818   -0.67896420561332   -0.39069120719366
C         7.96411824333873   -1.72614530754190    0.63392530968402
O         8.44603759850055   -2.82062066992381    0.34950722542478
C         4.68854907177444    1.39184346221578   -0.10075721873888
C         5.29355530736356    2.69931738812543   -0.17131642544076
C         5.51871776611944    3.86737722662560   -0.27576646793288
C         3.28503473615591    1.30815992356337   -0.07789704275963
O         2.66335816621562    2.53797823096504   -0.10506740833056
H         0.78610744655321   -0.40204972971133    1.02664354968906
H         0.67456186318093   -0.43145802902823   -0.75738511178531
H         0.71735441073615    1.11345306527687    0.10329464932247
H         2.41611451035886   -2.85364928034040   -0.77470216315647
H         1.91646750547217   -2.43780265618849    0.91996999094310
H         4.15109948438770   -3.78015133500822   -0.04365904395587
H         5.47886058005556   -1.80181235767499    0.39748578627173
H         8.54045885456021   -0.14802182749293   -0.47945403569452
H         7.22288962102407   -1.12917053543157   -1.31946705131000
H         8.01582424215773   -1.33823081817443    1.66534620091011
H         5.96354760904392    4.83804543548560   -0.31226188659303
H         3.30905261992111    3.23720951753857    0.09183343992138
