28
 energy: -47.950639960106 gnorm: 0.123367279233 xtb: 6.4.1 (79825abcba525fcdf90b791dcacef51065a7a4e7)
C         1.26972040423355   -0.10940021161334   -0.74237765804771
C         2.68781435575015    0.02254007075693   -0.23156523716865
C         3.57870953769762   -1.04668821340150   -0.49075886173144
C         3.09227007496932   -2.33867762189350   -1.12666423701505
O         4.24132293969594   -2.95588088818006   -1.70619064869997
C         4.92228044375271   -1.06050849295678   -0.03577823533532
C         5.37615123786282    0.11514357527260    0.57774608060510
O         6.55207342673396    0.19051041343265    1.28481481789678
C         7.56331525595590   -0.80720713131703    1.19292689580024
C         7.84855357739709   -1.11327843088224   -0.26009116647811
O         8.38941759041236   -2.14032277393822   -0.66464309919557
C         4.50420321489181    1.18505332399809    0.79353700027865
C         5.07866576527815    2.43553762820569    1.22571864968738
C         5.32984335321903    3.56158729119146    1.53376684940145
C         3.14228729350113    1.18271712218757    0.44345479949504
O         2.38796292811602    2.31845869811246    0.64534301628011
H         0.70790354824118   -0.90672792978549   -0.25641106236415
H         1.40400920082521   -0.37171451942183   -1.80104634569045
H         0.70300145038998    0.82885252832967   -0.72168352549796
H         2.29051202198321   -2.16800539338112   -1.83487569089535
H         2.79114725623072   -3.03834431198847   -0.33550388706234
H         4.00333343476029   -3.80150465493079   -2.12317015539019
H         5.44500144394420   -2.00482469900658    0.05568205600806
H         7.16032940973113   -1.69818426701130    1.67942965697821
H         8.44108742048060   -0.50105369767100    1.77254270215130
H         7.65577679476140   -0.26972753062468   -0.94437123066993
H         5.56353401131610    4.48280852028520    2.02176520212554
H         2.93517305251654    3.02968434449207    1.01861881108583
