28
 energy: -47.953244048304 gnorm: 0.113970780704 xtb: 6.4.1 (79825abcba525fcdf90b791dcacef51065a7a4e7)
C         1.26905743526606   -0.11672315082281   -0.64140316844024
C         2.74022155728664    0.01208430708753   -0.31214217847123
C         3.52106896497545   -1.14839001191964   -0.09373571133869
C         3.14757640592728   -2.56145332840739   -0.51085800169766
O         3.82697051531626   -2.93081183388688   -1.71048759279661
C         4.79009029121642   -1.04233454728032    0.53133890438153
C         5.40336123673095    0.20329246018094    0.72338236510107
O         6.62098384506041    0.48553022399714    1.29448340512906
C         7.39448471542723   -0.69677835617770    1.46865735513882
C         7.45213026015519   -1.53459039093643    0.21125923934182
O         7.70117910516719   -2.73761333213587    0.25281290774546
C         4.72384153321598    1.36105098662354    0.33684110968646
C         5.40189141904063    2.62537480544365    0.48594790846439
C         6.01664179993679    3.62212249146475    0.71950249267717
C         3.41728496383006    1.24894393508002   -0.17082013868409
O         2.73212937695548    2.42519348991428   -0.38685684908001
H         1.20110982143182   -0.55385486696870   -1.63731089214880
H         0.84668818834889    0.89777429326671   -0.63684020795629
H         0.77516688154151   -0.71449153994075    0.13362064003312
H         2.09604001880204   -2.49185932071489   -0.76172919485597
H         3.33698794948735   -3.36158513639739    0.21719109123940
H         3.37615092811763   -2.53722907954699   -2.47693705854848
H         5.30765467597490   -1.94454382815769    0.83379693170938
H         7.04920985632860   -1.37804545627873    2.24941544628458
H         8.41299759823709   -0.36913894664416    1.70414049660080
H         7.27456061133694   -1.01969904763826   -0.74808227525839
H         6.32199316192989    4.64546640586598    0.68900571412013
H         3.20632254506565    3.25311181021212   -0.20163332432961
