28
 energy: -47.953063136733 gnorm: 0.113796251493 xtb: 6.4.1 (79825abcba525fcdf90b791dcacef51065a7a4e7)
C         1.18141974885257    0.09912162194679   -0.62190206856022
C         2.67029326711351    0.00567781368893   -0.36921264789029
C         3.51290518880262   -1.13078066421155   -0.42012414944751
C         3.10495452276021   -2.47780121826799   -0.99401221823433
O         4.26385424915631   -3.05620059914140   -1.59361108428553
C         4.89939467067723   -0.96729024961882   -0.16853130201728
C         5.42674424845884    0.20480508868047    0.39063192939499
O         6.70415986909207    0.42173076539515    0.84842221540220
C         7.41766373704749   -0.79030479033842    1.06836716503839
C         8.06360126548380   -1.18074001729914   -0.24183399481567
O         8.42556518454487   -2.33802893079269   -0.44352862476726
C         4.54790151570421    1.25028245273625    0.68419367451269
C         4.91909925513885    2.46220395705898    1.37263953638546
C         5.23154831868727    3.39790439879109    2.04555259467299
C         3.23288883109759    1.17943128452573    0.19114219595300
O         2.40426543684256    2.26522572407756    0.37582236358425
H         0.64621467094487   -0.74923626656576   -1.04778658442768
H         1.04142762845482    0.96652478892668   -1.28192905273033
H         0.70350797852630    0.23294722421374    0.35564991410915
H         2.32463131648241   -2.41125535837954   -1.74246114252277
H         2.69708862310390   -3.08358058067030   -0.17375622130745
H         4.26543898607947   -4.01956075646452   -1.46122844001734
H         5.55571631138001   -1.75989756097023   -0.50668938468948
H         6.70803101194090   -1.50863532772431    1.48471488238363
H         8.28764197380539   -0.55477287142198    1.69112792806523
H         8.15560961772697   -0.33407810108012   -0.94303174164601
H         5.45522878840957    4.30587686134464    2.56222978894534
H         2.90873194337254    2.89992118169136    0.91181759305464
