28
 energy: -47.956622355220 gnorm: 0.106679198342 xtb: 6.4.1 (79825abcba525fcdf90b791dcacef51065a7a4e7)
C         1.15547710728203    0.00377397756675   -0.49004389839290
C         2.64970686202821   -0.02022001113571   -0.25333783664096
C         3.53515899981580   -1.11994166367251   -0.35683415188239
C         2.98196890395060   -2.35709197574050   -1.04507498687139
O         3.71353733642912   -2.92786830920588   -2.12957266514654
C         4.87900826971307   -1.07109205126096    0.09490028465229
C         5.41030470619395    0.14603807478700    0.54310439982772
O         6.66224782787302    0.38362399026567    1.05750765801116
C         7.39312775854307   -0.80069212023460    1.35701327127823
C         8.03696683950881   -1.49302133683024    0.17699059092997
O         8.41343433626535   -2.66296720246607    0.19968697361591
C         4.56555997068416    1.25851478638851    0.52392471474922
C         5.19678428560916    2.46022612540028    1.01172069525134
C         5.60942252817804    3.51575075732225    1.38797745443713
C         3.21140085742483    1.21764907131936    0.14714749379946
O         2.47363330157193    2.38084600917903    0.09872274795818
H         0.69618274117795   -0.68176659202428    0.22172574202737
H         0.96014155397523   -0.20752345837545   -1.55061877964301
H         0.86283553372132    1.04254142671102   -0.29706740090718
H         1.99734077690149   -2.13242436707091   -1.43691726000107
H         2.88546833711129   -3.15937505168236   -0.30131922540761
H         4.47652173694148   -2.40746998486652   -2.43392583983293
H         5.55104899161507   -1.84035654506023   -0.26555600818176
H         6.79837853093716   -1.50240028118721    1.94591207305771
H         8.20991452381890   -0.46234798820050    2.00396845729943
H         8.04886517315810   -0.79844672770287   -0.67998359687827
H         6.10957611316169    4.40733065929245    1.69835454379932
H         3.04234763779053    3.14153149773679    0.30496835963810
