28
 energy: -47.959942822397 gnorm: 0.110934128968 xtb: 6.4.1 (79825abcba525fcdf90b791dcacef51065a7a4e7)
C         1.06898154715678    0.15463802150357   -0.54337821916296
C         2.50765772710088    0.03754049035811   -0.08969655611448
C         3.18048090858791   -1.19696049030445    0.07595666912855
C         2.40871326023744   -2.48583203996711   -0.15517198021085
O         3.23836925909508   -3.62832371764303   -0.36373109120617
C         4.54614250220144   -1.25904445227045    0.45476419575159
C         5.27780185979661   -0.07229617880388    0.59923454679959
O         6.64045329996051    0.00227019590204    0.76060448410329
C         7.39665499972083   -1.12607355542478    0.33458441555108
C         8.83237918017348   -0.67633695895699    0.18380277021046
O         9.80622786170045   -1.34249370912522   -0.16097275103461
C         4.63510981372181    1.15363284711406    0.41052604513918
C         5.32337564153953    2.42089668033276    0.38168654859807
C         5.75769045477801    3.53077145262520    0.30738751276542
C         3.26043644951516    1.21939307733870    0.12186235728449
O         2.58634055264606    2.40831875237947   -0.05624857761151
H         0.61825727589653    0.91868795598504    0.08955822259006
H         0.46897436716751   -0.74861123655495   -0.36518219535375
H         0.93221086569762    0.58582910697448   -1.54201972353471
H         1.71924048726584   -2.28350215945009   -0.96584970011951
H         1.87508978868162   -2.78571007321772    0.75667355674279
H         3.74104804647144   -3.44565996472967   -1.17585082269991
H         4.97335258963091   -2.24760330493059    0.57129000295277
H         7.02484898682903   -1.69049580777657   -0.52338446094916
H         7.38574373975058   -1.91587258179963    1.09370681993728
H         8.83622465674313    0.41685159726177    0.33180347872083
H         6.18447449340017    4.46732314322710    0.02080666439436
H         3.13469460842230    3.18234778269607    0.15541755275188
