28
 energy: -47.951030085515 gnorm: 0.115709618010 xtb: 6.4.1 (79825abcba525fcdf90b791dcacef51065a7a4e7)
C         1.19438440952293   -0.04902855567264   -0.64409475655197
C         2.66540161782583   -0.02240967888599   -0.29092644975074
C         3.65273285041839   -1.00251870450592   -0.55301050693120
C         3.14010205947106   -2.29882818718084   -1.15883807309572
O         4.05762904807551   -2.98309261313749   -2.01150426508124
C         4.96687706791585   -0.97210612862334   -0.01964270233745
C         5.45916998740859    0.21640822528309    0.53681924206364
O         6.76112617093317    0.46423321598512    0.90001647170226
C         7.67221953341555   -0.61072785614539    1.10215826947161
C         8.03515807537086   -1.37818059991242   -0.14907869028433
O         8.38505915652211   -2.55164175178632   -0.25666301672194
C         4.54893700554621    1.25365915889133    0.75396524937481
C         4.92893529779145    2.50051280524796    1.37158689263610
C         5.20191975226849    3.60200570010683    1.74329190686222
C         3.19805054275935    1.09649151540801    0.39649901855103
O         2.27126067263202    2.09362977297977    0.61201907048812
H         0.68409630413453   -0.75303701044354    0.01280048185310
H         1.08647724311138   -0.23493334701215   -1.72178539729625
H         0.72998581596630    0.92211023724717   -0.43639250957574
H         2.25231452080421   -2.02793287366092   -1.71736960285552
H         2.84843256392849   -2.99167994587240   -0.35819553322761
H         3.62235419298090   -3.68268880305936   -2.52792602993592
H         5.58946199642035   -1.85807119508546    0.00845081945567
H         7.16180829731341   -1.22509715998145    1.84711029058192
H         8.59597635439416   -0.34686573498869    1.62867369886061
H         7.96482071773068   -0.79131700644254   -1.08054205187784
H         5.44883693910780    4.49987891967384    2.26698824910733
H         2.68809128227276    2.70317739512955    1.24393647440024
