28
 energy: -47.957884046448 gnorm: 0.110237776178 xtb: 6.4.1 (79825abcba525fcdf90b791dcacef51065a7a4e7)
C         1.25201256173051    0.09916112512749   -0.32197608488658
C         2.75970122265182   -0.02139662245661   -0.28112550086310
C         3.47765467877390   -1.22465134673208   -0.07902254019755
C         2.85124686922428   -2.57654261769765   -0.37942039468421
O         2.85794869231718   -2.82615676860167   -1.78468231872622
C         4.81508519184897   -1.11265098325954    0.38045182375530
C         5.43811858349490    0.10953886644591    0.66794083609301
O         6.66922242434477    0.25126148996699    1.26184098138041
C         7.42240257008413   -0.92832636107905    1.52219823440546
C         8.10007371904470   -1.41552674170186    0.26136532122064
O         8.68431456798549   -2.49683241995533    0.23999031080349
C         4.79399089919940    1.29379418539430    0.30160107282279
C         5.38201545767606    2.60349628621450    0.44090909028690
C         5.59845985717483    3.77752507055116    0.41298137046127
C         3.50829285585107    1.18161031199141   -0.25676558567148
O         2.85881445556278    2.36857429201498   -0.51938199348483
H         1.03402748828246    1.16638170551297   -0.35447149798526
H         0.77788305921558   -0.44865545222541    0.50429256148156
H         0.86255871587117   -0.31560006037150   -1.25910771372347
H         1.84628754810140   -2.71416564744903    0.00087568667784
H         3.43997002864705   -3.43243474142407   -0.02305423482273
H         2.37269441787825   -2.16068786853216   -2.30166384606640
H         5.32073116284150   -2.06078571639086    0.51719250034246
H         6.80902826666157   -1.69260855846277    2.00445073150768
H         8.15632720500879   -0.63184491724054    2.27957645325587
H         7.96324013324998   -0.73067621647664   -0.59258815763620
H         5.95818162496878    4.76920868967942    0.58199652144435
H         3.54329402188424    3.01979482994125   -0.74745040623241
