28
 energy: -47.948346157549 gnorm: 0.121547015365 xtb: 6.4.1 (79825abcba525fcdf90b791dcacef51065a7a4e7)
C         1.36355530430193   -0.14189115125356    0.55377110681503
C         2.77688370667038   -0.05329448290577    0.02087196572728
C         3.55817507917248   -1.19313013600729   -0.28650919201141
C         2.89013466377104   -2.55839179959639   -0.29077869742332
O         3.06378515468607   -3.16562432023958    0.98915387571973
C         4.90757126677701   -1.09921181504699   -0.71393221347282
C         5.49159652768636    0.17139498960929   -0.61884577657259
O         6.83090287040842    0.27782017231445   -0.90755248784716
C         7.66828156669814   -0.80094505245705   -0.50561189307081
C         7.39838748748103   -1.31966229184138    0.88880255140491
O         8.24418401471491   -1.95935134087499    1.51044745430601
C         4.76187056791593    1.32385791020077   -0.31735746190088
C         5.42307551017081    2.60074681488854   -0.20394686225231
C         5.77430972375208    3.66868456261467    0.19868849357115
C         3.39340391670007    1.22230250922560   -0.01017098225427
O         2.71586490313111    2.34806150552175    0.40609890337525
H         1.27040349047962   -0.74792838885760    1.45464557777939
H         0.55500047330535   -0.43410466254484   -0.13067904307119
H         1.16484989916726    0.86552977971568    0.93787534158703
H         3.32179525476525   -3.35889558513647   -0.87931185041486
H         1.83325536764943   -2.48652723146295   -0.58057994653588
H         3.07105194153277   -2.45696906326658    1.65499574077519
H         5.54369180498757   -1.96863448804352   -0.82702602967479
H         8.66731714962817   -0.38205479015518   -0.64482984743413
H         7.67933575201842   -1.69376058193185   -1.14037690238123
H         6.36393782592980   -1.23934969671110    1.26356114122728
H         6.22374796743041    4.62651954221417    0.05050043702719
H         3.22746291838002    3.12451481731300    0.12325019970110
