28
 energy: -47.944422623158 gnorm: 0.120384142484 xtb: 6.4.1 (79825abcba525fcdf90b791dcacef51065a7a4e7)
C         0.98641067920374    0.14146690119415   -0.59648411867100
C         2.46977207943161    0.13557255315523   -0.29826901460919
C         3.30466041003521   -0.90846414022201   -0.76418055419660
C         2.81975254727112   -2.24308812952076   -1.30628645265646
O         3.68493852751965   -2.92128538823940   -2.21656932605827
C         4.70754425493682   -0.88423458279943   -0.55510877657516
C         5.33781336458679    0.06738412241086    0.25837218428440
O         6.63467172228940    0.11942772092655    0.70989098010004
C         7.61908361511105   -0.68032731915892    0.06350190824094
C         8.65600160792420   -1.24679497255796    1.00701529203968
O         9.53268405418908   -2.03494669228735    0.65878981157104
C         4.49391520179621    1.08099503386932    0.71880109796168
C         5.08980642746635    2.01174298070843    1.64568896724464
C         5.60532653227085    2.90852871838163    2.24233466807182
C         3.11942629333781    1.16103836887638    0.43287925146019
O         2.25258486925948    2.17435446624914    0.78137527896557
H         0.55451639612942    0.86397619870811    0.09560030729320
H         0.45397519882129   -0.76332242696546   -0.27169127346753
H         0.66439298107796    0.37728790807102   -1.61756681817448
H         1.80163673703946   -2.15649509328192   -1.66607846539626
H         2.65309362139980   -2.95331084993343   -0.48534088874920
H         3.95552052809103   -2.35516019802279   -2.95945432203173
H         5.28058661900009   -1.66865212463063   -1.03432366250779
H         8.04719467081250   -0.16057283705753   -0.79643936115025
H         7.00873836933810   -1.46752453812001   -0.39253274322304
H         8.53836663928835   -0.85951130995233    2.03324801176688
H         5.94955820650318    3.82196178704837    2.67655449655926
H         2.61029854691369    2.65372653862834    1.54744251049411
