28
 energy: -47.952051959534 gnorm: 0.118432062022 xtb: 6.4.1 (79825abcba525fcdf90b791dcacef51065a7a4e7)
C         1.18256135021929    0.21372524065002   -0.71874027668776
C         2.66886351245084    0.14624694167647   -0.44363921642646
C         3.44979357277681   -1.03448560923902   -0.43165690685059
C         2.80471690642789   -2.36465279077962   -0.78488061477765
O         3.54936295336848   -3.54924606938573   -0.50318177161839
C         4.79711147030657   -1.06504490470817    0.01126719719693
C         5.41487316735093    0.14717467336363    0.34810953396979
O         6.64426436736319    0.28978630631161    0.94533525249632
C         7.48752839148216   -0.81292806787251    1.26064544941011
C         7.96280412552509   -1.64612721946515    0.09180235547731
O         8.71423332503444   -2.61722616289951    0.14957110900369
C         4.69577645956947    1.33487678846409    0.19374120316916
C         5.29713181909914    2.56457204461289    0.64840649689998
C         5.56155628111113    3.69239184446024    0.93836156452001
C         3.33071076311107    1.36263973736956   -0.14271514065754
O         2.63977460944621    2.55290417319351   -0.06821108796259
H         0.95596177268855   -0.34617143024518   -1.62576924974453
H         0.81877814503675    1.24306887808090   -0.84417996766250
H         0.59765350667541   -0.28752271071097    0.06135595653246
H         2.53076076362214   -2.37743008262356   -1.83287547222364
H         1.90277709561085   -2.39083148224640   -0.15881162322675
H         3.83302637840197   -3.62004494542518    0.42424102685610
H         5.42982030089292   -1.92506445057225    0.19397255685646
H         6.89662000824838   -1.50318249205896    1.86669734254428
H         8.40962360975886   -0.34855551583657    1.62706996243857
H         7.67664259709480   -1.15675932222327   -0.85456483337474
H         6.15054055296110    4.37172003460438    1.51543437071322
H         3.21163068000775    3.33202879382009    0.03455622431380
