28
 energy: -47.944733342815 gnorm: 0.117426854605 xtb: 6.4.1 (79825abcba525fcdf90b791dcacef51065a7a4e7)
C         0.98355934130351    0.25003556685359   -0.15147034516590
C         2.46917550161205    0.00246466299984   -0.00662104987444
C         3.18893009178942   -1.15669244272468   -0.38402381132489
C         2.50673033098815   -2.51348211525898   -0.44695954536377
O         3.43499310447441   -3.50624189542960   -0.01121941525202
C         4.60717294589452   -1.12571702772350   -0.38700554394067
C         5.31898807030957    0.04068902972904   -0.07494030249526
O         6.67338707331221    0.11007563737971   -0.29676949923657
C         7.48732328336951   -1.05779464033402   -0.30574661789487
C         8.65159653606409   -0.84221617756273    0.63462338982413
O         9.61472504942181   -1.59062310883930    0.78722339660019
C         4.62141873657483    1.17021769237891    0.35994817058994
C         5.22982496868998    2.45887604587626    0.58288473188672
C         5.64590351953806    3.57769198508863    0.54969952211003
C         3.21642864212474    1.16634444884796    0.30193222251369
O         2.56805967349496    2.28907411879169    0.76965952822288
H         0.46961587193900    0.74498765025173    0.67219084146486
H         0.53373804136739   -0.75116910502748   -0.20505833140200
H         0.78247934022326    0.81139946596588   -1.07144547364096
H         2.13206545655997   -2.89007041701019   -1.39105484266151
H         1.74145151404912   -2.53274139755531    0.34051778282171
H         4.11018187807034   -3.52398743754712   -0.71078762838711
H         5.11251518739040   -1.99830084413232   -0.78268475634453
H         7.83579938967341   -1.27030562393831   -1.31882424038299
H         6.85631077627729   -1.88527425823967    0.03669911522494
H         8.64798623300042    0.16930383676826    1.07484429175698
H         6.23905018263718    4.46226701855064    0.46540053406044
H         3.15971070089208    2.85641288045769    1.29185820251831
