28
 energy: -47.955688638511 gnorm: 0.108475276557 xtb: 6.4.1 (79825abcba525fcdf90b791dcacef51065a7a4e7)
C         1.29131052324645   -0.01326418297653   -0.81914212673155
C         2.73555222975395    0.00854471740740   -0.36856660667712
C         3.63280573803488   -1.05350202290879   -0.63524536591410
C         3.19869025094554   -2.36434151663736   -1.27044548227813
O         3.83565015427316   -3.56446113453063   -0.83328625097915
C         4.98580149202970   -0.94784542123440   -0.22218323336106
C         5.41114855957043    0.13312567363859    0.56213171294637
O         6.63313255312153    0.29814662428046    1.16871440567816
C         7.53737306766612   -0.79815764304453    1.08528911348426
C         8.08036686643104   -0.87625743276132   -0.32373898852610
O         8.31301764497544   -1.90627024246061   -0.95299526227991
C         4.58473709095851    1.24959410963943    0.71082023107636
C         4.92887933070928    2.44498038538295    1.44096882365682
C         5.29164827859834    3.35912439371621    2.11825099528776
C         3.25199984515965    1.16301940263306    0.27071312774315
O         2.41257249500142    2.22894617699102    0.51327217423321
H         0.72046443433502   -0.59942615130332   -0.09936292591146
H         1.06696082006997   -0.35483600107117   -1.83924876950473
H         0.90507684875167    1.00224443154163   -0.67257257669872
H         3.37298037187460   -2.28589538916838   -2.33673700366240
H         2.12098706687922   -2.52290645583689   -1.13060223990206
H         3.29068156590218   -4.31054596204672   -1.13653060055370
H         5.53716043752380   -1.87749656063308   -0.29350929545336
H         6.92014328430112   -1.67543331364923    1.29105008890688
H         8.35933743962900   -0.57189853898511    1.77329330903357
H         8.30872232970158    0.10684171578957   -0.76910407884706
H         5.50137598763487    4.19654018817769    2.74765654327374
H         2.89154238625665    3.06428215889580    0.64524680232051
