28
 energy: -47.955060571005 gnorm: 0.117864778236 xtb: 6.4.1 (79825abcba525fcdf90b791dcacef51065a7a4e7)
C         1.07620867004957    0.03279318095950   -0.08892620846195
C         2.58151233041876   -0.11879605793293   -0.06868673532384
C         3.38176055213724   -1.25096557251751   -0.35490286498429
C         2.79064249166371   -2.54565654844438   -0.88837296345991
O         1.68781176695430   -2.98747130938437   -0.09737528699770
C         4.79848891606756   -1.21744997459437   -0.29057088389569
C         5.42605260517182   -0.04515912298901    0.15267459169191
O         6.78516660665810    0.14305801259305    0.22885069664045
C         7.60938280474333   -0.92009006482774   -0.23685044990167
C         8.99222659484793   -0.58495266087020    0.27474314656496
O         9.97248467707023   -1.32103573369291    0.18368254402888
C         4.63811763032834    1.07992949477861    0.40742945820094
C         5.30507245308914    2.34544460011345    0.59220497761234
C         5.66759229961430    3.46410398487124    0.79993621455831
C         3.23433634007010    1.07571920672445    0.32522014119412
O         2.46596271801233    2.03850082665710    0.94354577209653
H         0.69347796507928   -0.96854889307894   -0.28479471184201
H         0.72498073671021    0.64699460022019   -0.92976936781952
H         0.72769314695384    0.41986897591550    0.87576342509960
H         3.59399467794133   -3.26790266775433   -0.96895992940090
H         2.36946465049201   -2.40697197243019   -1.89312116113667
H         1.96249868249192   -3.26399410677591    0.79350781887161
H         5.34188658839251   -2.04677061831252   -0.72678364421417
H         7.67656573763068   -1.00113072606328   -1.32397585661630
H         7.27293000215503   -1.88093197172599    0.16781079655221
H         9.05996868914817    0.46193562087255    0.61594125818914
H         5.96068010964572    4.49145338205379    0.79251838518308
H         3.02826419603410    2.69378590663965    1.38967823553026
