28
 energy: -47.950828424566 gnorm: 0.122008310041 xtb: 6.4.1 (79825abcba525fcdf90b791dcacef51065a7a4e7)
C         1.23706419764836    0.04277184391865    0.59665450248950
C         2.72884087519117    0.06955842588725    0.34523280860882
C         3.41989370637659   -1.15661153133417    0.19331861485415
C         2.81306461730451   -2.52384739323135    0.46287414796888
O         3.54630094831193   -3.56010260504211   -0.18954660108508
C         4.79495788638949   -1.16729517991587   -0.15520042388657
C         5.42175503659717    0.06933863153307   -0.36118761846639
O         6.75317471658459    0.19456321700346   -0.67750991368873
C         7.75566402848299   -0.79053895072406   -0.45149525802519
C         7.75553413566372   -1.07508811887754    1.03354136967380
O         7.66198887275928   -2.16572575339688    1.59280433443863
C         4.73794953546158    1.28460135252058   -0.27685191784754
C         5.45290429778910    2.53045600195776   -0.40794374812624
C         5.96306129386952    3.60838736822919   -0.34649846839223
C         3.35431689054964    1.28577805693339   -0.02597882800619
O         2.59646473695915    2.43582889526706   -0.07809624846562
H         1.03404690000274   -0.57473054647212    1.47130185202178
H         0.77951537133232   -0.39377449601037   -0.30206571657808
H         1.07354393361919    1.12122860920656    0.70669524932743
H         1.74962362197814   -2.59731942053760    0.26999190703501
H         3.05405572056627   -2.66304792801241    1.52527220508121
H         3.43880830023225   -3.51060526468858   -1.15473353205819
H         5.44859350067380   -2.03101628405252   -0.16423772631646
H         8.66337298136789   -0.21519415099294   -0.64634290283999
H         7.67140209946667   -1.57107656443202   -1.21558251861773
H         7.66249038897077   -0.10673283473881    1.55374433137810
H         6.35702030204395    4.59399444524046   -0.46806020775541
H         3.09320519125242    3.10978475746557   -0.57170346099510
