28
 energy: -47.947892052096 gnorm: 0.121162600674 xtb: 6.4.1 (79825abcba525fcdf90b791dcacef51065a7a4e7)
C         1.11020565844948    0.04608605237875   -0.67711209681444
C         2.56196467249023    0.09678745619741   -0.25384720474925
C         3.36778489858971   -0.96654955467116   -0.72723168059123
C         2.80799912628136   -2.29009472390606   -1.22231116868391
O         3.69604752557793   -2.99517730321533   -2.08911091992268
C         4.77428590202353   -0.86866995735799   -0.57052919855225
C         5.30247436888494    0.14316535487918    0.24296623148043
O         6.64051130150910    0.21432735045383    0.54794572365281
C         7.56882091024218   -0.67858282511739   -0.05822786283030
C         8.44541708965448   -1.31709091693082    0.99542700798008
O         9.42519942734493   -1.93150121908295    0.57884234421032
C         4.49387284650567    1.16878432935262    0.73878398188530
C         4.96264543116611    2.20197557316128    1.62943953074805
C         5.50984551627697    2.87639547933757    2.44901354969875
C         3.11312044698749    1.18140865463436    0.47281136373488
O         2.34773979650595    2.25046909166326    0.88630294138181
H         0.57331482529058    0.73975563985348   -0.03050251835714
H         0.58531016441601   -0.88583210875927   -0.42485246394238
H         0.93073556751642    0.29640400737410   -1.72927569320997
H         1.85013147954371   -2.11822450569827   -1.69818788555371
H         2.58105349593942   -2.97964531099540   -0.39820025767596
H         3.68523870601737   -2.66274497794920   -3.00287368213382
H         5.41711683300186   -1.67980422835781   -0.89016167628067
H         8.20564476081160   -0.09729092782964   -0.72865899169975
H         7.05521125693088   -1.39120525088362   -0.71285965533416
H         8.11174747326015   -1.21584302599099    2.04203756957804
H         6.08462096721440    3.41883838731507    3.16789541765575
H         2.99301944195909    2.95623412976958    1.05987009331206
