28
 energy: -47.948151032178 gnorm: 0.118075824973 xtb: 6.4.1 (79825abcba525fcdf90b791dcacef51065a7a4e7)
C         0.97659763483564   -0.12296617835818    0.14417408792268
C         2.47081834342995   -0.00100676003530   -0.06017467825047
C         3.21535088593100   -1.02876372812926   -0.68747972702867
C         2.55226855870375   -2.37383097414730   -0.93517222575960
O         2.90850144734547   -3.37787623640061    0.01461957135606
C         4.63255877827261   -0.96630997243727   -0.68590212488101
C         5.37021387738912    0.08787009478192   -0.12990038204385
O         6.73803285681071    0.16321570762316   -0.23859096699975
C         7.36016306286939   -1.07558126341183    0.08518335480087
C         8.79677616543473   -0.74391073006917    0.42050333382824
O         9.74497055187194   -1.52528593379896    0.45787215060652
C         4.59087118732710    1.15788025549217    0.31649541212773
C         5.33817248542045    2.35079378165771    0.63113378892846
C         5.96444755786655    3.31007053036011    0.96808984515499
C         3.18473932061714    1.15946406899179    0.32948262981074
O         2.51126461297203    2.23703285038972    0.86329007516502
H         0.67573001143126   -1.11021763308023    0.49395465549504
H         0.47330999151321    0.01368338459187   -0.82311599857590
H         0.63836418668035    0.65552826127244    0.83804826452794
H         2.77794951948119   -2.76237938369088   -1.92087334129652
H         1.48121730139904   -2.14821237474553   -0.84523566294056
H         3.85507012077499   -3.33663741023726    0.23347471482044
H         5.18151918863606   -1.75993317659035   -1.17797937630301
H         7.37513784725576   -1.70248152683484   -0.80907309793239
H         6.80841786889999   -1.43704084250117    0.95987907282811
H         8.99738095504420    0.32814130699671    0.58616070892156
H         6.30751751129972    4.28776543973242    1.22850863758017
H         3.02362477343170    3.03583350964663    1.07310006378090
