28
 energy: -47.945376244675 gnorm: 0.118412576047 xtb: 6.4.1 (79825abcba525fcdf90b791dcacef51065a7a4e7)
C         1.21514861236435   -0.02653963960874   -0.64787998457546
C         2.68242620782870    0.11122718389869   -0.30517777230554
C         3.50168211233042   -1.01764092479694   -0.54725475323322
C         3.04089776948193   -2.25636553334261   -1.29790432093219
O         3.90368893245168   -3.36009861243347   -1.02499789592779
C         4.86265620319397   -1.05771954398549   -0.14910352926635
C         5.37277549598643    0.12011792398561    0.41396466868399
O         6.66402796492301    0.37255581913289    0.81065287847926
C         7.60524116782266   -0.66907571331118    1.04648160075615
C         8.15299167473237   -1.22249304320580   -0.24966679768843
O         8.97705312775496   -2.09316846599250   -0.52144475590987
C         4.49555944010948    1.16005935217496    0.73110784596525
C         5.03900965633485    2.26310035081579    1.48507180103160
C         5.19300697583129    3.22310536928590    2.17835884673259
C         3.18623149017155    1.31706511595970    0.24285840158352
O         2.38662056974972    2.43604029249072    0.33335687558375
H         0.77345372169448   -0.92414330409662   -0.21573823297982
H         1.11110022285665    0.02517012220781   -1.74063874085380
H         0.60769731618227    0.83208483688596   -0.33855206885345
H         3.01976380112927   -2.04303965499700   -2.35976771976550
H         1.99497462790344   -2.47504924660584   -1.04420106010044
H         3.68915732430048   -4.05225200299114   -1.67345016225140
H         5.49207546593521   -1.88885419142955   -0.44301155194170
H         7.15816903654442   -1.52132513876741    1.56293122130992
H         8.34692291149497   -0.31657001382142    1.77161352267349
H         7.63732011784895   -0.69840990753676   -1.07210216186015
H         5.45352545730491    4.03555146941169    2.82137030393514
H         2.51293494242163    3.08398660309498    1.04667721986056
