28
 energy: -47.952943949395 gnorm: 0.120376339189 xtb: 6.4.1 (79825abcba525fcdf90b791dcacef51065a7a4e7)
C         1.46292098346112   -0.05422321710849   -1.08702850158575
C         2.81542633311389    0.02607565843093   -0.41352318105840
C         3.42781964365224   -1.16525817708381    0.04454104624280
C         2.96452680878770   -2.60635985669956   -0.09264981783033
O         2.90202599949369   -3.10376358717951   -1.42898674797672
C         4.65956791533361   -1.07053213761847    0.74182459274724
C         5.36767480294578    0.13714573100840    0.81014292058570
O         6.60756889763464    0.30239630505885    1.37915456408994
C         7.39807703954143   -0.88144210608225    1.36832718532074
C         7.62825845083999   -1.37936883816995   -0.04071061498258
O         8.59037426300066   -2.08283882220625   -0.34150851542903
C         4.72959173140309    1.31639520071010    0.41798649814163
C         5.38382536315649    2.58531960622941    0.62367660098578
C         5.90428854209474    3.63132316582522    0.87059026968571
C         3.45132110805318    1.26808637044554   -0.16602418284793
O         2.70628287490452    2.36927284441503   -0.52931392188785
H         0.71672360740291   -0.40375014526194   -0.37389905129221
H         1.50814207227503   -0.76749345707005   -1.92178731991830
H         1.21877286377941    1.00160831602693   -1.25294505947452
H         1.99751532850313   -2.65815358335262    0.39285472472489
H         3.76112286151072   -3.20320578139220    0.37141138750650
H         3.32972750022148   -2.47051387469818   -2.03036574317029
H         5.14790774839628   -1.95613903118481    1.12984518622008
H         7.06105962989544   -1.72916542062533    1.96891625716049
H         8.38030990977034   -0.57521763986004    1.74464294400483
H         6.93450187575630   -0.95918911650926   -0.78846126401618
H         6.55930852064510    4.47515630813822    0.88781615921582
H         3.14310436911362    3.19768949294051   -0.26945145610276
