28
 energy: -47.953345931008 gnorm: 0.122968008608 xtb: 6.4.1 (79825abcba525fcdf90b791dcacef51065a7a4e7)
C         1.27557189609346    0.05939899669021   -0.80445347752032
C         2.70564453161401    0.00855821020164   -0.31288912566351
C         3.60427528052119   -1.08532408095643   -0.31589152099237
C         3.12180658335909   -2.45046464181362   -0.77833161058110
O         4.08726984822153   -3.38709566117303   -1.25552782557893
C         4.90135216960745   -1.01684666005506    0.25444482292341
C         5.44309493562628    0.19453221394219    0.70571478737721
O         6.78092173658721    0.46629427921375    0.86314473095849
C         7.60249322644207   -0.65829887785157    1.15777034334008
C         7.91969139336471   -1.38013229615635   -0.13244044304562
O         7.93195287032412   -2.59983532438507   -0.28472442093858
C         4.57518337084575    1.28512181138809    0.61132298739218
C         4.98378015033349    2.63234266305461    0.92523996146935
C         5.42093420051891    3.74262717698121    0.97146079745140
C         3.20610858526285    1.17993549995810    0.30809357128517
O         2.25629226058941    2.16157326466589    0.49223835744710
H         1.04902729882370   -0.89186511658986   -1.28539769651001
H         1.09681533173355    0.87502965499933   -1.51888638647590
H         0.56629382413390    0.12070359075165    0.02926301721200
H         2.41596069416502   -2.37059682175799   -1.59620150378271
H         2.70051650993667   -2.94833732004499    0.10528629359248
H         4.49182121584113   -3.07549804539219   -2.08307576009592
H         5.37536333869238   -1.99020139011317    0.28950643884909
H         7.15807966358998   -1.30130508052336    1.92063494041644
H         8.55784475379059   -0.24520115745183    1.49956284830894
H         8.05863777569833   -0.61564595311318   -0.91553350982637
H         5.81456854003162    4.71236888689794    1.18606578121329
H         2.77381616827905    2.94381382578224    0.74696247398339
