28
 energy: -47.954606827624 gnorm: 0.111341876774 xtb: 6.4.1 (79825abcba525fcdf90b791dcacef51065a7a4e7)
C         1.24350259671931    0.06553517789723   -0.80992760708109
C         2.71117180755450    0.07777367767416   -0.44233359011481
C         3.54439795977575   -1.06546357622096   -0.49588245361895
C         3.02428480462974   -2.31963560488598   -1.17908848055031
O         4.07757950174444   -3.28138075375259   -1.23133568775103
C         4.89208259616076   -1.02517721064381   -0.05485603299102
C         5.34174248342358    0.17047087020251    0.52203238161297
O         6.61994905017712    0.35047562229849    0.99341930667572
C         7.50326248563161   -0.76527084435115    0.95652849984989
C         8.13942816087778   -1.14425659980435   -0.36179052903589
O         8.76337228291724   -2.18837149509609   -0.53936881600321
C         4.50300135361563    1.26643701172560    0.73868305224010
C         5.04319201790842    2.36424626484246    1.50256007308639
C         5.23943606159261    3.36340857188397    2.12636668455792
C         3.17932423033561    1.21158660436253    0.26725085831853
O         2.33430864560460    2.27736587216202    0.49026715307520
H         0.92013226355169   -0.97290117038780   -0.87785985332762
H         1.07420459496788    0.52378452984491   -1.79428901623891
H         0.79493957635228    0.50541574067456    0.08852280655647
H         2.65013948462521   -1.99244015961157   -2.14161997356823
H         2.17160876695705   -2.73819282471821   -0.62782034310265
H         3.76381346782159   -4.19908416978740   -1.30177562325170
H         5.50832648660047   -1.86384237105959   -0.35522173459503
H         6.83942410140475   -1.58296355062711    1.24569977326909
H         8.22432724039830   -0.56780673240708    1.75730432849488
H         8.03275139103907   -0.38620876858875   -1.15612280727681
H         5.52166086988919    4.29917037458301    2.55776126157589
H         2.78882548027140    3.05602423306758    0.85320139846768
