28
 energy: -47.950749436902 gnorm: 0.119099962728 xtb: 6.4.1 (79825abcba525fcdf90b791dcacef51065a7a4e7)
C         1.59917550092834    0.00121121657154   -1.21711899314222
C         2.88084821752467   -0.02903603120685   -0.41354685746976
C         3.54778392782770   -1.22898242375940   -0.06793132946584
C         2.90691598782263   -2.60614263578476   -0.12227879194005
O         2.69864537696006   -3.07158576976394   -1.45535765379595
C         4.83094898156589   -1.09879006642156    0.52276193780813
C         5.43149258382236    0.13298569239126    0.81711619597834
O         6.61177753296706    0.24924194865965    1.51125686658689
C         7.43689576371377   -0.90875208205934    1.44252942494497
C         7.93163610357520   -1.18272263080517    0.04021912929142
O         8.21791399562654   -2.23632133463289   -0.52457372581984
C         4.66714204704971    1.28300573427733    0.60548419856547
C         5.23304027466353    2.59445644645665    0.80637077182069
C         5.80744598228723    3.64004325385031    0.75366378362692
C         3.40717864709345    1.22528878975415   -0.01623838248391
O         2.69196002469485    2.36473516919494   -0.31590037345334
H         1.76863133669395    0.45993185036211   -2.19097386145340
H         0.70195327071964    0.40092667310808   -0.72432950448907
H         1.37309571883876   -1.01880885942255   -1.54932947765187
H         1.94429442514023   -2.59743563020486    0.37450321468446
H         3.59159070134459   -3.32346536190326    0.34975062359596
H         2.93062898278944   -2.30436482563902   -2.00594470268542
H         5.47511722974424   -1.95580382259089    0.67739059019511
H         7.09753842352317   -1.87779867475820    1.81496476133314
H         8.24396113143519   -0.59194298928880    2.11219044027954
H         8.01319562890087   -0.26746646778849   -0.57021875935898
H         6.23940076809512    4.61652560975080    0.78971290429140
H         3.25959838333659    3.08103590898939    0.01472873799007
