28
 energy: -47.955599272936 gnorm: 0.117015894964 xtb: 6.4.1 (79825abcba525fcdf90b791dcacef51065a7a4e7)
C         1.26213410965917    0.03698515109392    0.60573260554251
C         2.75376470149857   -0.03451886684694    0.36231241606525
C         3.52715180939592   -1.18999069048793    0.09607579167983
C         2.74551150177655   -2.49352888805858    0.10396389486991
O         3.19582671982852   -3.47371007218071   -0.83068805173257
C         4.92715041619458   -1.15819154901902   -0.13058223802965
C         5.55000721240718    0.07131167603256   -0.38541513342890
O         6.86029362121592    0.18089862966882   -0.78486422357280
C         7.68733789697691   -0.88530093261931   -0.33131158866271
C         7.66685763676283   -1.05005507221106    1.17159847679907
O         8.23615437220680   -1.93086558712280    1.81276171185188
C         4.73594714483327    1.19506594116001   -0.22401962424940
C         5.36612182318039    2.48344725426253   -0.37716231157751
C         5.66814763565474    3.63834105446661   -0.40834645780366
C         3.41368340864519    1.21488384290465    0.25410573602356
O         2.77968447161952    2.42451165784516    0.43989846477032
H         1.05865030081932   -0.12549232582091    1.66390490532591
H         0.63123969382777   -0.60214924029474   -0.02759284414269
H         0.95994727494942    1.06231223589372    0.36220782607506
H         1.69895535450789   -2.31829098197476   -0.11402774521742
H         2.74976000387116   -2.93350875999458    1.11021574673740
H         3.10893190057837   -3.00978592703712   -1.68087282389911
H         5.39747029691248   -2.13239061740778   -0.18599625726006
H         8.66999394385188   -0.47852398796517   -0.57999290811764
H         7.62218692759078   -1.82917880356784   -0.88359620453623
H         7.02004074667264   -0.29990880300523    1.65728222361250
H         6.15363361730763    4.53713265024346   -0.72120314712699
H         3.29275080875093    3.15437709283778    0.05431443783028
