28
 energy: -47.952470808058 gnorm: 0.111601418566 xtb: 6.4.1 (79825abcba525fcdf90b791dcacef51065a7a4e7)
C         1.21241539196380   -0.21573881203903   -0.34561917969181
C         2.69893328697616   -0.14459447588249   -0.07261540906037
C         3.54700343161123   -1.27647320835837   -0.01135976997505
C         2.98519993349683   -2.57797082236623   -0.55973593157371
O         2.83510281707964   -2.52367211516087   -1.97805737610902
C         4.93557447095732   -1.13881574501304    0.24418285668333
C         5.51868804141094    0.13255576884720    0.33452445629035
O         6.83914309895870    0.47426011582394    0.50202351534620
C         7.50222313313276   -0.48848252186568    1.31439363989487
C         8.16923260938986   -1.52415609401006    0.43759226814365
O         8.24285326857925   -2.72934748578164    0.66804820489384
C         4.70059515052295    1.25347020365562    0.17377369609984
C         5.33251057558738    2.53835784192823    0.34768702274899
C         5.70890851106427    3.62173805296621    0.68022819178980
C         3.30677993501290    1.13113320479825    0.03344983290668
O         2.58473408397560    2.30240474493565   -0.04683594760416
H         0.79274592601587    0.78414862055631   -0.23774949765470
H         0.75429772851953   -0.89159555809221    0.38988576783355
H         1.09128431607012   -0.62247366703423   -1.35646578055235
H         2.00656314434658   -2.64000278568523   -0.09937680684368
H         3.65395956514637   -3.42338868832119   -0.34956383043258
H         2.63939725070859   -1.60089560884640   -2.21422113030281
H         5.57557739764998   -2.01240730544961    0.26804430251972
H         6.77337108477567   -0.91135592388811    2.00928612380492
H         8.21591688146811    0.04949183037808    1.94794964694231
H         8.91227576528709   -1.09450031410260   -0.25541783013291
H         6.14762827594958    4.58988300265373    0.78803632222637
H         3.13737142183365    3.06015976908066    0.20814435909715
