28
 energy: -47.948002117130 gnorm: 0.113766264097 xtb: 6.4.1 (79825abcba525fcdf90b791dcacef51065a7a4e7)
C         1.39808046098166    0.03169407701714   -0.75609827608492
C         2.79700966474073   -0.08200492992757   -0.19094551026259
C         3.64066420653363   -1.21477947436267   -0.09506263702290
C         3.20063916010638   -2.61107240221382   -0.50369404679636
O         2.68499383164234   -2.75117677667435   -1.82717199056089
C         5.01297287026382   -1.03771618888795    0.21766515184201
C         5.56264751043266    0.24620163586454    0.33590802212066
O         6.92628317890850    0.41312186905887    0.30343115531601
C         7.65675366243998   -0.51647163267859    1.09637662942308
C         7.80019900305898   -1.90387874200668    0.51257274285739
O         8.05100988986132   -2.84860309509871    1.25796259113782
C         4.71929179173708    1.35966091507723    0.31298397419068
C         5.26516487873623    2.65670069581625    0.62954293641974
C         5.44637854403420    3.83601759412718    0.58111789186035
C         3.33980662384358    1.19536253885975    0.09525777146267
O         2.47689430467637    2.25280115207205    0.28729670151164
H         0.65929922850827   -0.62967238378742   -0.30406962803858
H         1.36195666901353   -0.29621664053718   -1.80433073861558
H         1.15295860780155    1.09588811548430   -0.85265475875928
H         2.38044233765021   -3.00072950576141    0.08702835723061
H         4.03889949503286   -3.28936199954877   -0.29540109000567
H         3.08293947460805   -2.10886531044590   -2.43927142062150
H         5.56125978878105   -1.96994852062111    0.15716997493832
H         7.23571087253454   -0.56493986447165    2.10300296732477
H         8.61687696647764    0.00094619610634    1.19938350081053
H         7.77438867135226   -1.98017330740535   -0.58765140780082
H         5.65973425389169    4.85911996494948    0.80280044223532
H         2.96125035873871    3.05314385485767    0.55086155555834
