28
 energy: -47.950765632982 gnorm: 0.120289227644 xtb: 6.4.1 (79825abcba525fcdf90b791dcacef51065a7a4e7)
C         1.14334467446027   -0.04004743163610   -0.59375419129484
C         2.61179898733361    0.01035305576291   -0.23260356380239
C         3.48437405783891   -1.08264482500885   -0.45190494059875
C         3.04636102656564   -2.21005554551029   -1.37240767884212
O         3.91301185146217   -3.32285902895642   -1.59080632311418
C         4.85335380586367   -1.01257586148416   -0.08671189543888
C         5.34984328358326    0.17360642869560    0.47099624089722
O         6.68539828743571    0.32140149255802    0.75886567738487
C         7.53570351925152   -0.75538454309183    1.13834765898057
C         8.36648393348269   -1.14828170812524   -0.06237618688740
O         9.01483079822523   -2.18632457660856   -0.17696055163506
C         4.46250782414146    1.22781670552638    0.70087107911431
C         5.02452161334129    2.43238106859530    1.26092858197653
C         5.48305886275061    3.43095548525485    1.72843735282979
C         3.08134153548134    1.16311496646266    0.44480200681089
O         2.17602913102118    2.17643656464720    0.67558726632191
H         0.72585721662982   -0.69050318010107    0.17445460705998
H         0.79645386188707   -0.34091482893009   -1.59213649989897
H         0.73920057483243    0.95184935509261   -0.35982012825472
H         2.83695035949162   -1.73211146947386   -2.32173643474734
H         2.07705925802753   -2.57482676875323   -1.00697756763125
H         3.49370705154229   -3.77995252448177   -2.33969849825682
H         5.60150802779321   -1.71621157080801   -0.43094639269027
H         6.94276933005202   -1.60232379792853    1.49054892269375
H         8.18032868644048   -0.38965752924052    1.94511313137325
H         8.09397560955327   -0.50999979873086   -0.91988165881238
H         5.95337684041692    4.33210501613592    2.05727286766987
H         2.63891498327994    2.84249379674900    1.21104979214435
