28
 energy: -47.954465109621 gnorm: 0.110843484733 xtb: 6.4.1 (79825abcba525fcdf90b791dcacef51065a7a4e7)
C         1.22753365621199   -0.01958727093434    0.52354051180697
C         2.71320209190971    0.04510406102275    0.24437681102790
C         3.47378882486231   -1.14471939904994    0.14461375887326
C         2.83440840444587   -2.52140035545971    0.06601442731763
O         3.67521501000388   -3.52128758285990   -0.50877509909960
C         4.88156394243836   -1.07538610234204   -0.01583335429326
C         5.55878949975582    0.13823699573905   -0.19763847749970
O         6.90947025529098    0.34966359826172   -0.33684928332270
C         7.80299973465935   -0.75851856724690   -0.34242494182385
C         7.91334817464579   -1.26145759540408    1.07925631246940
O         7.29500136392298   -2.25222608688463    1.46271589150918
C         4.79306396348773    1.30304008342176   -0.10563770083428
C         5.33962611612530    2.62223964523812   -0.30930789717750
C         5.62173694801042    3.72749913425932   -0.66255947100805
C         3.42428374648355    1.27054447615849    0.21492861831315
O         2.67716152718472    2.42785203952048    0.26097912851196
H         0.68383075925973   -0.72854392549964   -0.10039925165094
H         0.71876358328679    0.95267031098013    0.46446539470297
H         0.99336125425560   -0.40963714037407    1.52100791171629
H         1.92801306581180   -2.45656058442968   -0.52369036774454
H         2.53408524842366   -2.91941142191156    1.04455227515924
H         3.58592013162903   -3.43019245767624   -1.47278680619982
H         5.28109809429595   -2.04174114813832   -0.29843860498812
H         8.73668219018772   -0.35609298554738   -0.74144061740680
H         7.51211878900208   -1.59562867574303   -0.98647720903275
H         8.40218066202639   -0.62515132353124    1.83631466155271
H         6.05256399084020    4.70217646470498   -0.73868068735341
H         3.15296822828937    3.22723389486304   -0.02046765879473
