28
 energy: -47.949976346919 gnorm: 0.108891390251 xtb: 6.4.1 (79825abcba525fcdf90b791dcacef51065a7a4e7)
C         1.37404913759844    0.04939939944420   -1.00994726739685
C         2.67539081445817   -0.02164316061558   -0.24131807775581
C         3.41428190532098   -1.21437169324048   -0.05273571749855
C         2.98240235546814   -2.50219398634323   -0.73481300783807
O         4.08287203959578   -3.27378684317258   -1.21515054928422
C         4.71460712808935   -1.16746790981544    0.51236206896837
C         5.30282422448003    0.05533148849591    0.86354699493604
O         6.63757647632915    0.22181014666642    1.14486645139514
C         7.46477293429231   -0.93310659676100    1.05317639115263
C         8.21142809699748   -0.93736718997722   -0.26165817953048
O         8.24192422124024   -1.84302319143913   -1.09224437242168
C         4.53527361009341    1.21103832684307    0.69992026063591
C         5.11173398754131    2.49128483296702    1.03031623913243
C         5.56994487400667    3.55609745861745    1.31700172292686
C         3.18287866351017    1.17834750232132    0.31607497304054
O         2.28280082357500    2.22137726862075    0.35634694802377
H         0.85166113648280   -0.90670753024845   -0.98750797250078
H         1.42572347507887    0.40744030999189   -2.04761683412782
H         0.67353090354323    0.78421345694100   -0.59613652329338
H         2.35043481995960   -2.28515792287683   -1.58746817423987
H         2.48596062358080   -3.19681015084096   -0.04401845256848
H         4.56922048352891   -2.71946703232239   -1.84901583996639
H         5.21440655392443   -2.12179815257712    0.62545342376570
H         6.93071617282678   -1.88086773255072    1.15041316056883
H         8.13688493328498   -0.97320204600610    1.91736745684100
H         8.72534336712537    0.02868716634937   -0.40169493314661
H         5.88828558414924    4.48961003236413    1.72763018318606
H         2.71329494484986    3.08597050706764    0.24786190679718
