28
 energy: -47.952758697749 gnorm: 0.116438927781 xtb: 6.4.1 (79825abcba525fcdf90b791dcacef51065a7a4e7)
C         1.28562954324488    0.25808291074054   -0.99982045681741
C         2.62153116222887   -0.03001459892618   -0.35044019468212
C         3.41774205611963   -1.19554256794630   -0.24219301064386
C         2.95939283248151   -2.56452286210257   -0.71763445066347
O         3.89923539679922   -3.63505351113645   -0.62946818228330
C         4.72220214539890   -1.09795246510733    0.30666142954273
C         5.32987293594136    0.11870760945320    0.64584139934740
O         6.61921731781820    0.23046720890730    1.10792387245354
C         7.50812872950152   -0.86479361087429    0.91626279561253
C         8.01214482933596   -0.98472431454164   -0.50426049846127
O         8.92972727462486   -1.75809790510100   -0.77062861932556
C         4.45993210827799    1.21171789742351    0.65571209817864
C         4.99428712060566    2.44621680176573    1.17626601521835
C         5.45422909922755    3.43308032040318    1.66670000256224
C         3.16440830063841    1.19565932395494    0.10914262643063
O         2.41296313693617    2.34199030289552    0.25380950665710
H         1.48689805964225    0.80925425416730   -1.91809837964716
H         0.72430383691570    0.91029313458726   -0.31633165571981
H         0.74567449761523   -0.63788373810822   -1.32785877665647
H         2.66248068603136   -2.46933505791403   -1.75507886313994
H         2.03606016987211   -2.89133195838181   -0.22084905168418
H         4.68664808298664   -3.40643320222158   -1.15225349511660
H         5.27737194411801   -2.02688387337121    0.35365362031360
H         7.04032019954794   -1.81021375440192    1.19956248814912
H         8.30549783900043   -0.68256414275251    1.64507230927658
H         7.37343208867647   -0.39895870135998   -1.18683276397522
H         5.98723782233550    4.35584462582286    1.74292344287742
H         3.00764921209862    3.06625770789453    0.51149315480888
