28
 energy: -47.950212835290 gnorm: 0.129310141183 xtb: 6.4.1 (79825abcba525fcdf90b791dcacef51065a7a4e7)
C         0.98255094125189    0.10100482589560   -0.18231652587271
C         2.49288494275058    0.03667941756597   -0.24620306017637
C         3.24344693630169   -1.16356349820098   -0.23211975906310
C         2.53996496882556   -2.50996400242618   -0.28266115810780
O         3.36386694762524   -3.66652926505311   -0.13894082832562
C         4.66103939625929   -1.14171809973610   -0.28044734167360
C         5.33590548959657    0.07580898185286   -0.11688651939725
O         6.70424529215065    0.19161280120557   -0.16841344735603
C         7.28070688495169   -0.99603718604696    0.36419643063018
C         8.75131080254243   -0.73549136685886    0.60029393398644
O         9.54774688748765   -1.57455810375380    1.01583310854755
C         4.60294514423794    1.25898736886105    0.00321344117625
C         5.38618792209292    2.44242507700318    0.26109934799608
C         6.00643888541136    3.46143640526555    0.20746746414770
C         3.19762740727116    1.24963579755233   -0.04549581287673
O         2.36286249239823    2.32965149693761    0.14530950465180
H         0.70554722898251    0.07603523965400    0.87133364144362
H         0.55662716908199   -0.72969582564513   -0.76209841001512
H         0.83040268340763    1.11195683726617   -0.57822532273894
H         2.02411812844297   -2.55058190847587   -1.23437575536742
H         1.74829813824281   -2.55503346960520    0.47719113015928
H         3.57887124242694   -3.83335269317244    0.79461879165131
H         5.12204070556906   -2.12174037781242   -0.29966871879500
H         7.08202031329637   -1.81866787589119   -0.32625645141588
H         6.89333502449906   -1.22857546630457    1.36221315153318
H         9.08128691109993    0.31588945372762    0.54838675183589
H         6.58019048616548    4.27510294446393    0.59496990219910
H         3.00453311438103    3.01296085318777    0.40214175280668
