28
 energy: -47.957047142729 gnorm: 0.114434973047 xtb: 6.4.1 (79825abcba525fcdf90b791dcacef51065a7a4e7)
C         0.98651393955947    0.07027225328327   -0.24969991390492
C         2.49833223134419    0.02300301934592   -0.21098164132347
C         3.29729868534790   -0.91380988427000   -0.90966531614717
C         2.64857565525477   -1.91578722548587   -1.85064112001421
O         3.61838028770799   -2.61810616829049   -2.62739094525178
C         4.67017889267963   -1.10084220721261   -0.60536284362927
C         5.21516053530539   -0.19167494152173    0.31168593207537
O         6.53689083962004   -0.11479532784427    0.67984063183284
C         7.38195363201501   -1.25375788665908    0.55684919065160
C         8.78901620106548   -0.80837045984576    0.88564547774623
O         9.75535621709541   -1.55031526811442    1.04911139126032
C         4.50275361421208    0.90961796544177    0.79251464836102
C         5.16828082221005    2.08862131461224    1.29003229991607
C         5.63753626009833    3.10355966129320    1.70916377249124
C         3.11173697095185    1.00279055919121    0.60874972250329
O         2.33462774301508    1.92280349385668    1.27908582106226
H         0.62937138698723    0.84670008444484    0.42642302529338
H         0.57674707125352   -0.90059042260358    0.06197049061562
H         0.67274475119591    0.40176919539246   -1.24648248910738
H         1.92514262506017   -1.37669323648232   -2.45024996987692
H         2.16509023900854   -2.64163195929958   -1.18315748395452
H         4.11668247701480   -1.88583175114959   -3.02871322858205
H         5.31616979557233   -1.86519080255436   -1.01985325862295
H         7.40563813964415   -1.69910727053729   -0.44015921148027
H         7.04490738139077   -2.05042348379336    1.22907841686525
H         8.88621622412631    0.27373999080542    1.07687660514169
H         6.17263935805819    4.01329872743569    1.87481934635221
H         2.95238404377093    2.60027755995668    1.60160978496303
