28
 energy: -47.948001682914 gnorm: 0.121104860763 xtb: 6.4.1 (79825abcba525fcdf90b791dcacef51065a7a4e7)
C         1.23370723285133   -0.05731409984065    0.42479693546465
C         2.72001189021035   -0.02773585272927    0.14310274408751
C         3.50539080670102   -1.18517963602630   -0.07513687481130
C         3.11926585758361   -2.63397478445055    0.17413360048292
O         3.57725061794502   -3.31376570374670   -0.99430445330063
C         4.90254153865037   -1.06082997809299   -0.28700510974642
C         5.52325871510455    0.19420344899037   -0.35157954576194
O         6.86614290775861    0.35266502719021   -0.59646998340925
C         7.74165036855661   -0.69021538544799   -0.18128224245467
C         7.52785357464714   -1.25091959229918    1.20659518458317
O         7.78228323146329   -2.38649846151614    1.60250225784787
C         4.73957398736075    1.32879573851971   -0.12773911334063
C         5.33532351930987    2.62183787080240   -0.35930713077714
C         5.54310807525061    3.79161091846332   -0.23918915932615
C         3.36560085595506    1.23371403048764    0.15604830121013
O         2.64438272299632    2.33698802543116    0.55891793417802
H         0.87941917716177    0.94617388673064    0.65937110186827
H         0.87357733252199   -0.59424648791618    1.31340918044778
H         0.64912781649609   -0.27874809828436   -0.47584212398730
H         2.10154763591607   -2.85151414074159    0.47485721969753
H         3.74045906843956   -2.98517533873333    1.00895112278836
H         2.84145351540052   -3.29240564681929   -1.62970734974774
H         5.46994948902291   -1.98349291822689   -0.29575999133626
H         8.72897281653805   -0.23223530870156   -0.27277769968190
H         7.67942712035587   -1.51679881575938   -0.89756185378466
H         7.24926383125322   -0.52697813675516    1.99099096426109
H         5.97856832988734    4.72213693056783   -0.53227274376821
H         3.11907502560740    3.15582785151671    0.33804643698621
