28
 energy: -47.953236250075 gnorm: 0.108916257298 xtb: 6.4.1 (79825abcba525fcdf90b791dcacef51065a7a4e7)
C         1.17943860659864   -0.04649255794184   -0.59867115144675
C         2.65046502477239   -0.00177078362711   -0.24737456880519
C         3.43301355022277   -1.16663758326307   -0.06075233007242
C         3.04454878004697   -2.54579702560314   -0.56795051508041
O         3.91740722095785   -2.84198847319694   -1.65767616460576
C         4.74700235791265   -1.03038588296138    0.45621000849757
C         5.33772202487478    0.21473194411016    0.71174957057682
O         6.60460215797024    0.42059142436266    1.20272408776869
C         7.38397316621348   -0.72207061473153    1.53947033225576
C         7.69112343961365   -1.48677912192958    0.27172365243215
O         7.96534118923457   -2.68100276414475    0.17348542496372
C         4.58008350092835    1.35978677215652    0.45406895990919
C         5.32259276807579    2.59338719360708    0.54014573683207
C         6.18702467901347    3.41683888239556    0.56576846783238
C         3.27482904314876    1.25632266905863   -0.05875068828497
O         2.58429722611112    2.37502650768884   -0.47268375901933
H         1.05654591739384   -0.82557888789716   -1.35063862995900
H         0.80200207794385    0.90737554720960   -0.99275105458702
H         0.65739336435486   -0.24356309452364    0.34501778158170
H         2.02865618974358   -2.47802772109181   -0.93792081263982
H         3.17581740668666   -3.30223877548586    0.21735678569535
H         3.59612140721092   -2.26586075587128   -2.37212892625960
H         5.31535699893949   -1.93720960803580    0.62347947600971
H         6.95314379316611   -1.29529887165034    2.36331388707442
H         8.34598339540588   -0.30832405214601    1.86121322005571
H         7.76144954596249   -0.78988433935414   -0.58055102056632
H         7.05878619249285    4.00177039715716    0.76398367044367
H         3.03081199488244    3.23618615018062   -0.53305171474110
