28
 energy: -47.955546266440 gnorm: 0.112319096004 xtb: 6.4.1 (79825abcba525fcdf90b791dcacef51065a7a4e7)
C         1.14570410843613    0.12443928045596   -0.74920799361116
C         2.59216804545259    0.06250053514196   -0.30962443240573
C         3.29068242252306   -1.14689693166859   -0.07819380738497
C         2.84909350576582   -2.51673655215101   -0.56683915487801
O         3.54791748903664   -2.93400755833391   -1.73929092877270
C         4.62107213937044   -1.08647636125708    0.41047143467353
C         5.32159624207355    0.11904443268265    0.55383873549955
O         6.58382141190823    0.21896824908852    1.08790073181439
C         7.30238590611868   -0.92980422308102    1.52434157127344
C         8.08936231927706   -1.46203225841951    0.34803231067501
O         8.79728581642106   -2.46327545989266    0.26216844252012
C         4.65863060704847    1.31596968579040    0.27203653495196
C         5.36812067037381    2.54304335360692    0.53926914601439
C         6.04364649340431    3.52333750601309    0.44621022705184
C         3.29552556297396    1.26922369150473   -0.07021695008561
O         2.54734419480497    2.42551341928756   -0.12399201953678
H         0.71040166226158   -0.84447795120083   -0.99260968553645
H         0.96741163315970    0.77574204550171   -1.61617867557314
H         0.56838915242452    0.55058035281087    0.07966356353741
H         1.78537518716864   -2.51822828771690   -0.77180150274397
H         2.92250992305736   -3.17107875116288    0.31213151924479
H         4.44950492200686   -2.62148447332660   -1.55204806275395
H         5.17201830997163   -1.98522025745540    0.65957596083312
H         6.63720577229526   -1.63880358770151    2.02211468773332
H         7.91768675439223   -0.48833330376334    2.31597070019637
H         8.03709244091015   -0.75253959432269   -0.49509771257478
H         6.63256561641791    4.41314461759071    0.39310803225279
H         3.12525067517247    3.15838727219690    0.14718261072783
