28
 energy: -47.951771072704 gnorm: 0.113673319732 xtb: 6.4.1 (79825abcba525fcdf90b791dcacef51065a7a4e7)
C         1.30500058576384   -0.25198347105179   -0.40853172974606
C         2.80502778310866   -0.11178418298272   -0.26856526331756
C         3.63777404500694   -1.24471435115262   -0.10386068888738
C         3.02645324742761   -2.62680564356200    0.05845433355808
O         2.83249436204167   -2.86343137764009    1.45254953501685
C         5.02427006172515   -1.02450146948972    0.09989464294912
C         5.52538095074210    0.28419231495618    0.07201944213230
O         6.87613833090964    0.50844167070788    0.18857878691261
C         7.78665056151016   -0.41612046063702   -0.39678099253342
C         7.96878703288216   -1.61202429671693    0.51038070844567
O         8.10111804342843   -2.77161786091186    0.12457311466067
C         4.67887668441387    1.39491207167987    0.03599032436726
C         5.21684777718123    2.73270427043021   -0.00140385496492
C         5.80581227934612    3.75381454752949    0.18945298988361
C         3.29140735255104    1.20798509574649   -0.09578655964201
O         2.35774951938386    2.21708396731280    0.00257786543209
H         0.97678931108776   -1.07010306729494    0.23216390483264
H         1.08237397015796   -0.42938276408739   -1.46994048552269
H         0.79167725661869    0.66988900761196   -0.11092943868763
H         3.56740415238333   -3.46366629984348   -0.36645130960906
H         2.05153449011636   -2.72366610606056   -0.43782642544604
H         2.53190270094003   -2.06985323841784    1.92738514669479
H         5.68199239197013   -1.86003197254463    0.30635395180452
H         8.71905279228475    0.13877809793000   -0.52182680326208
H         7.50419838526791   -0.84256111934303   -1.36556245047259
H         7.95790465114710   -1.38280484471023    1.58941742353529
H         6.05028736821118    4.77086541732422   -0.02789864529653
H         2.75866280301490    2.95617901927755   -0.48488773176444
