28
 energy: -47.952754711760 gnorm: 0.108750785661 xtb: 6.4.1 (79825abcba525fcdf90b791dcacef51065a7a4e7)
C         1.15661422784820    0.16184086282656    0.29064149297583
C         2.66280914376943    0.09645241708480    0.16246476512103
C         3.35945579317141   -1.13469788121202    0.10699323961183
C         2.49682381920897   -2.38610025163691    0.09730775289176
O         3.13067443326468   -3.65041513906024    0.28928294323955
C         4.77798787366849   -1.12253983080236    0.10673088000459
C         5.38450347657851    0.13530620260951   -0.01381268664922
O         6.74771184883030    0.30533324262163   -0.04806321589901
C         7.62920201679526   -0.79346019342838   -0.25329916556631
C         8.22079979110098   -1.49829939794720    0.94649906605125
O         9.12231164141517   -2.32539211769969    0.82729233118053
C         4.68952609884836    1.33539772358258   -0.18219539699191
C         5.30264466988488    2.62281907878107   -0.39929230597000
C         5.74364333504594    3.73078424758325   -0.46178293818452
C         3.29563160411570    1.35427878159916    0.00241135258622
O         2.57974282031935    2.51975705224986   -0.16740236172983
H         0.66533777990801    1.12920268488199    0.18870149963861
H         0.88077275437953   -0.24467699254536    1.27363507472012
H         0.75728014928216   -0.49566138475337   -0.49047304506361
H         1.96855486470990   -2.49861994388609   -0.84172349222118
H         1.65878172706170   -2.36513214481542    0.80680681123856
H         3.91592967355491   -3.76737781047382   -0.27221897836638
H         5.42354845941962   -1.98586547093903    0.21282374866062
H         8.44403882144687   -0.50110288237573   -0.91925034105594
H         7.20293981558884   -1.60769314170456   -0.84953202451025
H         7.81855416966898   -1.24136976785169    1.94106723360822
H         6.17552342183996    4.70547469298930   -0.39206640594021
H         3.17253689152239    3.28176302985354   -0.05534102977958
