28
 energy: -47.950424210694 gnorm: 0.116915527961 xtb: 6.4.1 (79825abcba525fcdf90b791dcacef51065a7a4e7)
C         1.00532870464058    0.10072141288704   -0.35110874353823
C         2.48624443856589    0.00734900394215   -0.05530775545760
C         3.13359839040714   -1.22913576247711    0.18167955398143
C         2.49267254954896   -2.58324785495437   -0.07489429800741
O         3.34739273729106   -3.46945769792820   -0.79683524497319
C         4.50703867189636   -1.25559099008363    0.53571779968226
C         5.20786033397587   -0.04780141810837    0.41463132820322
O         6.54442734137325    0.14700616624981    0.66772817526678
C         7.41118923724580   -0.98086508386683    0.61183548703383
C         8.78076140107022   -0.70244211173810    0.03472651254868
O         9.75507251880885   -1.43422098856536    0.19669487799492
C         4.59134849647365    1.18332448045570    0.17839383686455
C         5.32181560492270    2.41657653934631    0.33965875331286
C         5.87299582404377    3.37773581049229    0.78501810457660
C         3.21927857719319    1.21798966288101   -0.12754810276412
O         2.59832566035716    2.39505970198328   -0.48615185310861
H         0.63108572260380    0.21468999522214    0.66598838462741
H         0.41998163386555   -0.72300798713356   -0.78291928016713
H         0.81207699342892    1.05328579040162   -0.85824946702098
H         1.59063719992613   -2.36943019404482   -0.63536078968972
H         2.29260961372638   -3.10231464410756    0.87204161266436
H         3.64993652795967   -2.90367173166158   -1.52754993918813
H         5.01870532034381   -2.18423545086409    0.75742039361124
H         7.00297979493417   -1.80383480261164    0.02106592238826
H         7.51373969324347   -1.37367600283347    1.62935765838689
H         8.81807729097015    0.13998149729864   -0.67654713624506
H         6.39681866196286    4.30692892067723    0.84511865275378
H         3.34851840510116    2.99210688351152   -0.64540377867506
