28
 energy: -47.948611958355 gnorm: 0.104997822399 xtb: 6.4.1 (79825abcba525fcdf90b791dcacef51065a7a4e7)
C         1.21803429513137    0.09409157684359   -0.81195014302821
C         2.67396070163945   -0.01774040425424   -0.41559180437220
C         3.55986564582176   -1.11216583318718   -0.56232315747125
C         3.02182438658559   -2.33367368534995   -1.28941722204146
O         3.82636991312628   -3.48474727093103   -1.03476195507113
C         4.86573583151772   -0.96560954895302   -0.02790249719539
C         5.36405969968399    0.20241096273746    0.56536806479061
O         6.61518162046647    0.34935200391387    1.11447789848494
C         7.62069511413673   -0.63464220961689    0.89724134416246
C         8.00489395228877   -1.22599882396081   -0.44029019863729
O         8.92466164208331   -2.04097767196725   -0.46949810302218
C         4.45822732885800    1.23171348385336    0.83289371470258
C         4.81953897931020    2.41326460079788    1.57713159437229
C         5.30313683265740    3.25808040939778    2.26878979789762
C         3.19544135923770    1.13554470435549    0.22174631605772
O         2.43721575612982    2.27890986586714    0.35396993627898
H         0.60597788366557   -0.62992453740311   -0.27462266292669
H         1.03237124401977    0.04085151010343   -1.89376176458532
H         0.86308778509562    1.06612840144443   -0.44990841080902
H         2.84221832260280   -2.10747333823047   -2.33348786595597
H         2.00368263509435   -2.48527908576613   -0.90660355671521
H         3.86975540213059   -4.09112887371206   -1.79371486393269
H         5.60774775129269   -1.70052346309405   -0.31540063200981
H         7.47093762122940   -1.44808647542513    1.61054625907610
H         8.57569955643822   -0.21007189097204    1.22568455084753
H         7.60568757603180   -0.77291231760008   -1.36350582857418
H         5.63500045929299    4.06735197849643    2.88226214652112
H         2.92404445489414    3.03777591326704    0.71692420299810
