28
 energy: -47.953158578642 gnorm: 0.114154381768 xtb: 6.4.1 (79825abcba525fcdf90b791dcacef51065a7a4e7)
C         1.10568957347745   -0.08792374962719   -0.52830925222918
C         2.58810192811755   -0.02732465946261   -0.23147699229656
C         3.38416699174278   -1.18673266932691   -0.39327369328120
C         2.80943538025025   -2.53365444605030   -0.80036204679447
O         2.17875498478338   -3.13168883379607    0.33176441569360
C         4.77630447174972   -1.17516877130892   -0.12087569780594
C         5.37483020312382   -0.01068386606062    0.37943463905052
O         6.72501528823605   -0.00523209482195    0.63514906513110
C         7.44057955011813   -1.02903931665231   -0.04769813123227
C         8.90353169246116   -0.66202501918810   -0.15434506407760
O         9.89418157982783   -1.26795844030085   -0.55742535405950
C         4.58827110408879    1.13626400223206    0.51134872012237
C         5.17359777406173    2.32684612264181    1.07739298253813
C         5.48663918886983    3.37518770306491    1.55588720924793
C         3.21485554970621    1.16421831449629    0.21080543032575
O         2.63105398065643    2.40593378605993    0.34115671912280
H         0.97846731977044   -0.43420141844304   -1.55370648356921
H         0.61239714109579    0.88883534462833   -0.42718601713485
H         0.57785191720683   -0.74122530873603    0.17631923752251
H         3.47523514633819   -3.28035356317463   -1.21588526429323
H         1.94390732082648   -2.37137275666536   -1.45661577881331
H         2.79215180384073   -3.14635270223919    1.08616469517381
H         5.32700900445365   -2.09646932626436   -0.26670141147991
H         7.18715059747538   -1.09083253309343   -1.10830086102506
H         7.30339603603934   -2.04508850798901    0.33829811960513
H         8.99538534396640    0.42266629660969    0.02450647541094
H         5.72585020065996    4.34657518155460    1.93083617768102
H         3.39128998458448    2.98855282747134    0.50611713040804
