28
 energy: -47.948397043825 gnorm: 0.116319615810 xtb: 6.4.1 (79825abcba525fcdf90b791dcacef51065a7a4e7)
C         1.14749430158103   -0.10012296957532   -0.62424672401790
C         2.63006739713705    0.04210796167531   -0.35764702315704
C         3.55309662177441   -0.99731659967629   -0.62548714571456
C         3.04943110691629   -2.24704644183500   -1.32885902459438
O         3.95268176313627   -3.33606595095949   -1.14100808328998
C         4.91437036449549   -0.89226053552961   -0.24041809955086
C         5.42961959684272    0.27502651226041    0.33969201761177
O         6.68220612276418    0.38885350903608    0.89330720018466
C         7.38382323451913   -0.84739627534388    0.97020736077363
C         8.12882011696380   -1.20935025890393   -0.29481081801308
O         8.98890077752285   -2.08754462631726   -0.28758991752098
C         4.56325947972517    1.32845213753668    0.64181874051925
C         4.94445340426618    2.53487972838203    1.33443901604508
C         5.20907517153103    3.36174491787920    2.15434205459894
C         3.22932748603426    1.18947729840737    0.21910201696652
O         2.43710493031707    2.21077265122531    0.69765429728480
H         0.62567227280994   -0.98300182552007   -0.25579062892671
H         0.94395853316723   -0.01862642308844   -1.70107222745850
H         0.56353830554505    0.77629733757610   -0.31961634982066
H         2.95019776697131   -2.07959064750156   -2.39451363585583
H         2.05437219923153   -2.52116532095541   -0.95354617216937
H         3.46611545640012   -4.15458710535214   -1.33815477368225
H         5.55215821707753   -1.76291194541991   -0.33276586317284
H         6.79997954160228   -1.71165311000208    1.29441323835751
H         8.20041989073228   -0.78444536313905    1.69778929251185
H         8.03119044599112   -0.53769043831404   -1.16447842650360
H         5.51290493509116    4.13943184309186    2.82089496898646
H         3.07340251319820    2.93093181079617    0.84295343220645
