28
 energy: -47.947844357782 gnorm: 0.120516058777 xtb: 6.4.1 (79825abcba525fcdf90b791dcacef51065a7a4e7)
C         1.13228200896753    0.13694498630541   -0.68637085236620
C         2.56207663400074   -0.05891576292464   -0.23177879068083
C         3.33983226147786   -1.23167967551251   -0.38619926588921
C         2.81655652705523   -2.51693795846651   -1.00630350560600
O         3.79601874323827   -3.48631980778973   -1.37787557859039
C         4.67366691463314   -1.22173097179393    0.09667472542229
C         5.29156439152332   -0.07553253785062    0.61532723533823
O         6.52035914966294    0.01953344559892    1.22314731629360
C         7.56776693629803   -0.93407158434458    1.08148539507801
C         8.41190961989990   -0.41865279542498   -0.06222288671657
O         9.24567656795273   -1.10566825226038   -0.64861752240027
C         4.50429828718050    1.07733510582363    0.66704027694595
C         5.06477686363992    2.33811642603632    1.08750840000955
C         5.58927735942077    3.28535149492856    1.59111209586571
C         3.16210193550930    1.13064354662828    0.25105328206534
O         2.54321329334296    2.36213534941435    0.24223048157005
H         0.47551722213934   -0.50026207195325   -0.09462733517635
H         1.10008307165285   -0.06077737530430   -1.76687571728934
H         0.79727290793467    1.13830194348315   -0.39146412499094
H         2.13922500349658   -2.31787771110521   -1.82795152648854
H         2.14391518696992   -3.00726411552498   -0.28986996823680
H         3.29993076034501   -4.05749152101589   -1.98881751994581
H         5.13824357019184   -2.19762016730391    0.02495205440239
H         7.15211530881863   -1.91840201722217    0.85510053077586
H         8.11315648021765   -0.97156768180670    2.03086027878983
H         8.05303279774639    0.50969502937747   -0.53799379687149
H         6.08341294895445    4.09263979156878    2.08660972373043
H         3.30087950334829    2.91350991930537    0.50019107371467
