28
 energy: -47.947895676092 gnorm: 0.126896453093 xtb: 6.4.1 (79825abcba525fcdf90b791dcacef51065a7a4e7)
C         1.18220648550687    0.13716921710693   -0.64289510523670
C         2.65522019584345   -0.01835743844612   -0.33407458181581
C         3.51730171440243   -1.05715703253821   -0.76049639341115
C         3.01876653953580   -2.28788388232725   -1.50009744994102
O         4.04781446482650   -3.27091629971033   -1.60882117215227
C         4.84953843486315   -0.88701549073193   -0.30379262646181
C         5.33786911820269    0.18598219104735    0.45434832051231
O         6.68327956378951    0.28912244803159    0.71444864659357
C         7.47023908969549   -0.87522710669579    0.94133749812277
C         8.18782794776091   -1.18454154568246   -0.35314805337808
O         9.28242866916873   -1.74364578182320   -0.33677902778565
C         4.47281777270414    1.22713260636175    0.79968575626005
C         4.93234026519074    2.33839224906028    1.59620334971694
C         5.22381095128012    3.27209120135332    2.28120175974836
C         3.11465032884365    1.04241371651164    0.48561867391448
O         2.21007299646092    2.02254316375618    0.83312288149149
H         0.61785892893337    0.58580489612440    0.17427750274308
H         0.74983966106608   -0.76464063825142   -1.09832850041252
H         1.02492448471169    0.83879561215465   -1.47048172064760
H         2.61929519149125   -2.08504321071466   -2.48639697388160
H         2.14640667176286   -2.59053110356281   -0.90550847448011
H         4.22159656297508   -3.58741247333319   -0.70592559516975
H         5.61962000731224   -1.58627130947874   -0.60603592264062
H         6.75707926081773   -1.61644050899441    1.30866369799503
H         8.16442987582426   -0.52948612817768    1.71511441235108
H         7.60300023905885   -0.84959179743402   -1.22651248721665
H         5.50075650363414    3.90100135323018    3.09923320885613
H         2.75965795125727    2.72952401111236    1.21094575712757
