28
 energy: -47.954791295576 gnorm: 0.106932582549 xtb: 6.4.1 (79825abcba525fcdf90b791dcacef51065a7a4e7)
C         1.41434999728199    0.03729222761205   -1.09240382644877
C         2.82928870413565    0.06591259643365   -0.55718670505513
C         3.54793245516145   -1.12160902418045   -0.27885549976841
C         2.83857325208011   -2.46208154505230   -0.17796659204156
O         2.84987915821111   -3.29678852965777   -1.33565810413061
C         4.87012432285907   -1.05998104218921    0.23143051520380
C         5.43330199442333    0.19824996831300    0.48491467836699
O         6.67757599457973    0.46744133168395    1.00234834237434
C         7.49718113370632   -0.62789421227572    1.39602485655999
C         7.80864755178735   -1.63533340876485    0.31234733570116
O         8.44244075361227   -2.66042080940371    0.55425274932525
C         4.72523452448075    1.38091168949934    0.25793959077608
C         5.30936793166762    2.57305890043939    0.82191866011647
C         5.94510161776673    3.48882820180010    1.24991514257406
C         3.46052719817765    1.31822781982414   -0.35358645795737
O         2.75875349700099    2.47631293655015   -0.61054089738430
H         1.02244520563644    1.04727052792029   -1.21024980506543
H         0.73941785321083   -0.51820565206417   -0.42643808447617
H         1.46511726704942   -0.51852258868916   -2.03601889954341
H         1.76875715376012   -2.44408394420718   -0.00862064163697
H         3.25775229592497   -3.09831448208566    0.61300730512033
H         2.58132498538720   -2.73977898700809   -2.08613095095947
H         5.47752213128156   -1.93394987181875    0.43287956773085
H         7.06296947943368   -1.10336980067533    2.27824137772947
H         8.43268416294799   -0.14406468625152    1.69754012432195
H         7.40041882064966   -1.30391243114035   -0.65744112341866
H         6.24589743597138    4.45962916973807    1.57926242083566
H         3.15398729133035    3.19674442464850   -0.09151837102192
