28
 energy: -47.953078623272 gnorm: 0.114217455366 xtb: 6.4.1 (79825abcba525fcdf90b791dcacef51065a7a4e7)
C         1.56871991288170    0.20693103534982   -1.17479337637411
C         2.90893926749451    0.11434913436078   -0.47868366165819
C         3.66057116213222   -1.08527328147000   -0.46972341980379
C         3.08192919384290   -2.30755013346460   -1.16358826065329
O         3.73513897876371   -3.46831487982235   -0.65069899108375
C         4.84383055161531   -1.10353138203498    0.31254573854378
C         5.36308776599570    0.10241521115864    0.80308967311309
O         6.64630286309346    0.18315011176214    1.28812602255482
C         7.58021939887563   -0.86345283197778    1.04540001524661
C         7.62870114581785   -1.33651993948181   -0.38992540552938
O         7.85710570702048   -2.49702259736287   -0.72471066143554
C         4.63214232824533    1.29271805420423    0.82462747357763
C         5.05120651407432    2.59213612510785    1.28981247810650
C         5.30241691753788    3.66443114711103    1.75138418464279
C         3.34177612592765    1.23803256938133    0.26844172384008
O         2.45524051730828    2.29259366913288    0.22808619722484
H         1.26049058571454   -0.68833563592753   -1.71426114967951
H         1.52311977714157    1.00564145743644   -1.92818833077665
H         0.78962075469229    0.47764184184519   -0.45254896136786
H         3.22067317124502   -2.29166993988413   -2.23783515067090
H         2.03761143224790   -2.44321964683903   -0.85191964122292
H         4.68591970437490   -3.41721454757229   -0.84817110764451
H         5.62205673313346   -1.84756568709201    0.19375049730080
H         7.57788157935318   -1.76247954936570    1.66561633211472
H         8.52024979142423   -0.36089081356583    1.29826888096567
H         7.29279289147535   -0.55875504101815   -1.09648582307787
H         5.56530676145282    4.61568213221579    2.16054523325732
H         2.80220422887012    2.99681633956972    0.80106288059513
