28
 energy: -47.944633333257 gnorm: 0.120517842669 xtb: 6.4.1 (79825abcba525fcdf90b791dcacef51065a7a4e7)
C         0.93332963710750    0.08613267046506    0.18434842455868
C         2.43312186919254   -0.00921013572290    0.00867533092952
C         3.13478632493455   -1.15882985268384   -0.42740514579566
C         2.39530584257563   -2.43162428369194   -0.80608518368641
O         2.91897356789044   -3.57904786709030   -0.13802497316212
C         4.54990562044941   -1.20604704260856   -0.34028996218307
C         5.26761594773276   -0.09136537480781    0.11462235498259
O         6.62412527874258    0.01095706918443    0.30912658271262
C         7.48532566512130   -1.11332295809391    0.16482814361891
C         8.87029336320150   -0.51930441160156    0.28855556192454
O         9.96660597238658   -1.06131814834025    0.16471694881742
C         4.60726041900667    1.13221989967168    0.25003132481286
C         5.26246615119329    2.38250242459862    0.54667630230013
C         5.94068215319991    3.19993891518922    1.09237984338544
C         3.20680123407433    1.17189947271834    0.12954235196635
O         2.60746533681728    2.41239072092348    0.17017471583720
H         0.72640645900268    1.11806981818742   -0.09817897671341
H         0.71154169258821   -0.26240844253795    1.20265626835439
H         0.50323745606647   -0.64089129323969   -0.51448896945731
H         2.45662655537537   -2.54989087825161   -1.88114854488757
H         1.31690193161004   -2.35017301723679   -0.61489465200641
H         3.83896333662943   -3.58527599277113    0.17688850998352
H         5.00488296490213   -2.06495859541669   -0.81841325429252
H         7.35724447683640   -1.57265736650371   -0.81778566335829
H         7.24749614318856   -1.85418757902084    0.93601237117208
H         8.80631095631466    0.52287456992691    0.64457443592199
H         6.58699893631605    3.98066029823974    1.43024224970216
H         3.28029096629627    3.11234238635242    0.12557650819214
