28
 energy: -47.947173870735 gnorm: 0.139396061984 xtb: 6.4.1 (79825abcba525fcdf90b791dcacef51065a7a4e7)
C         1.44562998864425    0.15111177118719   -1.20278013486010
C         2.78099109179981   -0.03252116098543   -0.51545363128293
C         3.49111010397520   -1.24963846262133   -0.37950814890927
C         2.77891478628567   -2.58826466750893   -0.48483313361140
O         2.81099606638330   -3.08755398629972    0.85187707845830
C         4.76960342265356   -1.20994257404395    0.23389240102762
C         5.39277885441207   -0.02718457199095    0.65496777875458
O         6.66179133371307    0.05302638427519    1.17611351971901
C         7.59674051798789   -0.98933892844863    0.91952375841214
C         8.18771061273750   -0.78361492705771   -0.45696961727376
O         8.80770387941637   -1.64923340272189   -1.07124092035861
C         4.66391695430958    1.13408171285677    0.38703697822247
C         5.16383501813835    2.38417485065962    0.90457761105871
C         5.80222918022119    3.35148270393586    1.19222349159139
C         3.38955613018502    1.20847570768852   -0.20274945416768
O         2.64342721244299    2.36433010090448   -0.28620789964721
H         0.92762930581435   -0.80605265500868   -1.14760074295023
H         1.50489856875742    0.48669474069113   -2.24752554414950
H         0.80033015515866    0.80950462559326   -0.60946419286367
H         3.40383265720501   -3.26453769721996   -1.05548267402741
H         1.76722359810244   -2.51673069247096   -0.90614887912274
H         2.23979475954252   -2.53263132209716    1.40989174940284
H         5.15294637816161   -2.20762116524728    0.41002004042075
H         7.12798943996870   -1.97095259785690    1.01765537808414
H         8.42157635349068   -0.99093064045498    1.64050343372958
H         8.05144991253733    0.24530535667999   -0.83078278871584
H         5.89575231552174    4.29149768113050    1.69125009623491
H         3.18424678745098    3.00235010562356    0.20882778392695
