28
 energy: -47.946010225549 gnorm: 0.122980492973 xtb: 6.4.1 (79825abcba525fcdf90b791dcacef51065a7a4e7)
C         0.99003814415496    0.07844537369631    0.24653345177796
C         2.49522342671133    0.02800294568392    0.10092830388794
C         3.25012522554051   -1.16955641993304    0.11090535721265
C         2.58479006807791   -2.52625652416872   -0.05319700651092
O         3.46611899417147   -3.45845571736946   -0.67879848055350
C         4.66422057337795   -1.14620526124142    0.00058661603718
C         5.37890017660616    0.05620663254280   -0.08889675305130
O         6.74972100514436    0.14530584191147   -0.05241468438476
C         7.38597589903160   -1.11994650885494    0.09184180398939
C         8.57405098469996   -1.02324953787791    1.02212634186334
O         9.57029016354217   -1.74319597212303    1.03629889595827
C         4.67085453342020    1.25897269453584   -0.14882271129811
C         5.19349384009035    2.59760531338900   -0.02468540908910
C         5.53707361216645    3.71927718580335   -0.24779272965314
C         3.27146020153062    1.20735247601204   -0.02072560683329
O         2.61521661258095    2.41543413659590    0.07702976955744
H         0.56858593212222   -0.46446460521946    1.09220477726492
H         0.57359986605709   -0.33410129738439   -0.68298581661302
H         0.69529921024634    1.13115401413941    0.32930004451132
H         1.66649306970611   -2.50352627248949   -0.62741160653326
H         2.42282811111763   -3.00125267916489    0.92368072630099
H         3.79577965119536   -3.08372842206815   -1.51336050555878
H         5.03922445494751   -2.14455714889629   -0.18915249528985
H         7.79200645751624   -1.34908035856278   -0.89586242878852
H         6.67534405215286   -1.75027492752529    0.63760443303111
H         8.39260233234103   -0.26012476531634    1.79781776582101
H         6.07088849491459    4.63786407390133   -0.13535574665816
H         3.27989207159604    3.11674065392726    0.18186949687017
