28
 energy: -47.953135827614 gnorm: 0.126797294588 xtb: 6.4.1 (79825abcba525fcdf90b791dcacef51065a7a4e7)
C         1.00482017993834   -0.19656135727698    0.03327689631459
C         2.49519768045159   -0.01124306472812   -0.15046225532926
C         3.28603313849269   -1.15166038572308   -0.43001963169119
C         2.67071155296812   -2.43761938083125   -0.95720503887608
O         1.82366518468616   -3.02750339884889    0.02852439402248
C         4.70373871493609   -1.15211716949544   -0.38010115521247
C         5.42478361819766    0.00946296316711   -0.07124126890291
O         6.77321349257094    0.03191816385423    0.19267537540465
C         7.64751575907064   -1.00172346231012   -0.24740900742981
C         8.98248043405127   -0.53721639455720    0.28962407875510
O         9.99945286540041   -1.22612747436943    0.24288192154429
C         4.63812253646395    1.09162446209479    0.33082438846727
C         5.23065900663854    2.31331279983649    0.81752485501539
C         5.78450033568495    3.28496637196746    1.23599927578532
C         3.23442362434545    1.12767371333837    0.25527423598730
O         2.60139539007960    2.29930546106615    0.61055913373122
H         0.79562668577865   -0.68252994146756    0.98596038263983
H         0.59362258827047   -0.91787984499591   -0.68661048661615
H         0.46149727842679    0.74078527519035   -0.13434870810210
H         3.38639548409242   -3.12761784134987   -1.38756196809524
H         1.92686329719885   -2.08366953233313   -1.68353307168279
H         2.43785883192380   -3.53959132396230    0.58180785645980
H         5.24569892386350   -2.07706812149721   -0.53527913423273
H         7.74697960518213   -0.96526024247772   -1.33446933788951
H         7.34498245071089   -1.99978389362764    0.08802705719005
H         8.99513016075975    0.48153208271107    0.71267459761313
H         6.26901765696236    4.14967141203080    1.63466007137557
H         3.25986079196444    3.00906586010375    0.69587709648011
