28
 energy: -47.953656510198 gnorm: 0.110769529068 xtb: 6.4.1 (79825abcba525fcdf90b791dcacef51065a7a4e7)
C         1.45266321806044    0.19172422576098   -1.05741793405419
C         2.80157225199613    0.12710033708763   -0.37507183177694
C         3.59561667908893   -1.04491137735154   -0.37248739686457
C         3.06646899942500   -2.30760893088819   -1.03266406674119
O         3.52719385304122   -3.64502782134796   -0.84251538943341
C         4.92461834694990   -1.01913761112728    0.12296333028244
C         5.46932116586866    0.17162888556642    0.62290588802182
O         6.74823621374923    0.32905347862518    1.10041311531142
C         7.56835325048245   -0.83110639112868    1.01135777371304
C         7.79457288425308   -1.38642512345548   -0.37671564471171
O         8.14740288803131   -2.55558627033256   -0.51667789569181
C         4.62644898486297    1.27841919203142    0.74997931251631
C         4.97143217649241    2.49205775079679    1.44895516966681
C         5.05158661592467    3.58650717309204    1.91983461410364
C         3.31689489803949    1.29620358127277    0.23799316644252
O         2.57653871115830    2.45488100705957    0.14305956124671
H         1.15119329460760   -0.74155893688840   -1.53242491087698
H         1.49875942925013    0.91386435045441   -1.88446717295372
H         0.63084423865256    0.57339547675922   -0.44028144529426
H         3.15078406633288   -2.14238786166520   -2.09995100872392
H         2.01948251915199   -2.43813170763542   -0.72782600790809
H         4.49150562525628   -3.75793346435473   -0.89678864958830
H         5.56704885205351   -1.88387528010734    0.23630855031871
H         7.34613101198097   -1.70750722246366    1.62410702306571
H         8.58797345446848   -0.50925223702843    1.25000589572617
H         7.75383156532822   -0.67164402154947   -1.21600602198159
H         5.29865233812606    4.50882532193231    2.39909449502560
H         3.15227410064520    3.17080623740463    0.46022748236455
