28
 energy: -47.948560725309 gnorm: 0.127312413149 xtb: 6.4.1 (79825abcba525fcdf90b791dcacef51065a7a4e7)
C         1.23940967977300    0.03377963530355   -0.83858965664095
C         2.66944679144786   -0.01638544054612   -0.34685255584548
C         3.40618970599635   -1.22510558116738   -0.32868050190676
C         2.67990160822452   -2.39482000246082   -0.97250455967699
O         3.66047246266940   -3.31118952627306   -1.45815970206144
C         4.73941695485063   -1.24528878415670    0.15554972128228
C         5.30728118501191   -0.09815285070334    0.72666963630346
O         6.47975899567247   -0.07668638657856    1.44308735070151
C         7.54046919751960   -0.92747600672576    1.02172690639330
C         8.25113760186201   -0.43086550893336   -0.21707512203073
O         9.27112731655190   -1.02213385053980   -0.56498166281033
C         4.55483010579935    1.07813940032831    0.76814128515878
C         5.31000328907735    2.22754390255157    1.20297686137290
C         5.65714109178241    3.32954754043092    1.50473017795910
C         3.26599717975362    1.14244177382706    0.20943483375764
O         2.40668518280994    2.21639331789431    0.29822687607386
H         0.64741841418087   -0.76051742652724   -0.38452828549028
H         1.18170868585225   -0.19197642043812   -1.91252003866246
H         0.72963652284672    0.97234544180079   -0.59131979344854
H         2.01712166651575   -2.08809482341186   -1.77259884524800
H         2.05636487940912   -2.91091785318143   -0.23021884185512
H         3.12733323468053   -4.07053875062730   -1.74926413082746
H         5.26522077840459   -2.18571614161642    0.04391610754895
H         7.22677135977989   -1.97026116751908    1.10608068596223
H         8.35518781206510   -0.72920426581334    1.72677320337472
H         7.84966379196577    0.40111967268669   -0.82006737210760
H         6.00013509621002    4.30986540881958    1.75519827511333
H         2.97237530601963    2.89260882381037    0.70730259309589
