28
 energy: -47.955126309772 gnorm: 0.116830640160 xtb: 6.4.1 (79825abcba525fcdf90b791dcacef51065a7a4e7)
C         1.29812862791388   -0.08561757556719   -0.70255849581338
C         2.76993516410181   -0.05493912343511   -0.35302681643154
C         3.58625642079153   -1.19269572561228   -0.14505030783185
C         3.04558114456615   -2.60971284330071   -0.24489205259343
O         2.76327777434582   -2.88525924974666   -1.61656701577401
C         4.89990843317366   -1.07585014786277    0.37748836853317
C         5.44112608571828    0.20843563250203    0.52669316334598
O         6.70213124635105    0.40472515851126    1.03635557293996
C         7.55857849797862   -0.69679523956053    1.31856940586257
C         8.04076285397338   -1.51051085200821    0.13887996430734
O         8.58900359218666   -2.61069101760708    0.14608588857843
C         4.69947225282653    1.37146780555898    0.30562367661444
C         5.27729733552372    2.67315925311037    0.53413349970077
C         5.75983760709177    3.71975165840531    0.84681694637079
C         3.36112750212125    1.20646542534050   -0.09310623343671
O         2.52651807779325    2.26372707995891   -0.38516437071177
H         0.82939065266252    0.79287619462365   -0.25976439348400
H         0.85279873619795   -1.02697071005638   -0.35162085310831
H         0.99752025127615    0.04941550055054   -1.74817673289028
H         2.13338305675772   -2.73412656765005    0.32600577162067
H         3.76633110184816   -3.37954936610368    0.06172555272138
H         2.37757237251085   -2.04508470159147   -1.91811061293404
H         5.41370319302633   -1.94297307135274    0.77428569213793
H         7.15113946068167   -1.42065682597382    2.02775246996706
H         8.39368145627244   -0.30216032320080    1.90766592959303
H         7.79679950407844   -0.86020191436233   -0.71818501913246
H         6.34397105924805    4.58531316681188    1.07263468783904
H         2.96755569226745    3.04757480608981   -0.01681096697688
