28
 energy: -47.956497772750 gnorm: 0.119426817411 xtb: 6.4.1 (79825abcba525fcdf90b791dcacef51065a7a4e7)
C         0.92959796790965    0.09084617598533   -0.32181004768792
C         2.44161512124293    0.04937627908477   -0.28422778654314
C         3.18413783130405   -1.15573321251764   -0.30649552206257
C         2.55592140113576   -2.50683274094669   -0.60667850225927
O         3.22142142426736   -3.49512794533677    0.17913033450652
C         4.56608478603716   -1.17958138287062    0.01293373417602
C         5.27911695572933    0.00548306528209    0.24047706781873
O         6.64475147361083    0.05730941909711    0.38461502987210
C         7.45461345857649   -1.11017923847018    0.47172144504198
C         8.90296904857818   -0.68030046221707    0.41030194967425
O         9.85777550236632   -1.44105131919371    0.55389512378005
C         4.52398955251761    1.18039047177937    0.20979862996079
C         5.33220417280965    2.37284397525206    0.28289440189993
C         5.95980805695666    3.37992125197880    0.14917657073307
C         3.13536497690965    1.25191202506515    0.00007390019797
O         2.42147668952719    2.42492777003672    0.11869357287730
H         0.56711685453372   -0.03582949954621    0.69803990559952
H         0.54220901071405   -0.71281075412552   -0.96343844603231
H         0.61722169159227    1.09423957425636   -0.63412332426165
H         2.72021882349870   -2.73657372034674   -1.65249583535053
H         1.47542618061330   -2.48641007276176   -0.41108678195012
H         3.28380084927665   -3.18251272967621    1.09780927892883
H         4.91715923307092   -2.19985481416673   -0.08258693693652
H         7.15283230036165   -1.79946352729110   -0.31994646911530
H         7.27630184067129   -1.67804299650836    1.39145189480896
H         9.04178438316368    0.40053871440270    0.23855448030654
H         6.55893963116891    4.22166563058037    0.42104057760076
H         3.03480907080997    3.15006276942891   -0.08774839856296
