28
 energy: -47.957702907312 gnorm: 0.116762842588 xtb: 6.4.1 (79825abcba525fcdf90b791dcacef51065a7a4e7)
C         1.17526236152894    0.01336898518385   -0.65169875161757
C         2.65355843544006    0.03384072259862   -0.32990741958950
C         3.59411423737359   -0.95170838062725   -0.71483916110793
C         3.07905644951266   -1.96877890305457   -1.72008473026026
O         4.03742018085558   -2.81532394495958   -2.35413020173237
C         4.92869772749220   -0.95661721097150   -0.23396084329662
C         5.34050875434475    0.03169802163208    0.67059056273482
O         6.51193968432639   -0.02996833209626    1.38638814819151
C         7.40274078066771   -1.13103694869996    1.24280878864171
C         8.11473692396395   -1.09805033598867   -0.09071114161374
O         8.97367913612636   -1.90007386646883   -0.45125623180257
C         4.44380679307158    1.05227239641243    0.99604330038803
C         4.95929624073136    2.23978262555602    1.63211662514835
C         5.31572452098341    3.24923182264086    2.16121294171631
C         3.10298502078380    1.02941483157593    0.57289734960471
O         2.28598375481460    2.06935167277165    0.96111551394598
H         0.69304499455933    0.77189116910347   -0.03554640278493
H         0.83322999844716   -1.02892424106453   -0.58642733539415
H         1.05942623051317    0.28458086319802   -1.70760733639822
H         2.61120017760223   -1.28643675392912   -2.41939021164168
H         2.36371939305533   -2.64718383873275   -1.23613972771162
H         4.56279175160417   -2.31153334093466   -2.99893265762804
H         5.54055188645728   -1.78272314923961   -0.57530933834106
H         6.85647577893442   -2.07433382224419    1.17419144436536
H         8.17585920481829   -1.22570025535328    2.01319514592441
H         7.81671888807962   -0.30723058207414   -0.79977360866120
H         5.66094062150620    4.21580581571068    2.45779821858602
H         2.82464132525027    2.77965428460620    1.34832848461907
