28
 energy: -47.950825588636 gnorm: 0.116955117529 xtb: 6.4.1 (79825abcba525fcdf90b791dcacef51065a7a4e7)
C         1.16649214618148    0.10950204722330    0.43500039008095
C         2.63022673089421   -0.04045539166459    0.08240732254011
C         3.38330347100346   -1.23840261530382    0.03856013446883
C         2.65282827855062   -2.56856977877845    0.12398223069567
O         3.27322784311981   -3.69979530762420   -0.48638355547734
C         4.73696882601577   -1.16287206168158   -0.37889212887021
C         5.43353684602301    0.03810055749631   -0.57131441810446
O         6.76868250952977    0.20686827999816   -0.84938432280174
C         7.63717391479012   -0.77015485334517   -0.28578676224033
C         7.56616733256724   -0.76671615249261    1.22459341318018
O         8.41213944134648   -1.31205466053794    1.93025149871157
C         4.74191088600803    1.23121951096196   -0.34840936081102
C         5.52238129653708    2.43294972167207   -0.18345592103322
C         6.23964195490362    3.37602871445042   -0.03475864511963
C         3.37821635777487    1.15939191985889   -0.01291565301568
O         2.65116167053498    2.27956608093488    0.32807464765966
H         0.66921657778220    0.98015831273772    0.00814223897435
H         1.15715923912726    0.11656145288385    1.53385649052618
H         0.63736186289491   -0.83040754570724    0.23876601261387
H         1.64562904944494   -2.42154990612700   -0.24675125759589
H         2.69938551731604   -2.98967290787938    1.13721848388107
H         3.74404124633289   -3.52188657452744   -1.31841341582238
H         5.33395103374555   -2.05235760689367   -0.53940083688368
H         8.62392964063314   -0.44492296276030   -0.62262521282553
H         7.44484485846502   -1.77353925986831   -0.68125818943257
H         6.69578419464845   -0.22382252534529    1.63040115028082
H         7.02083475526197    4.09973932302721    0.05116593207844
H         3.20389745623786    3.07669260488831    0.26734476656015
