28
 energy: -47.948922525912 gnorm: 0.119783008535 xtb: 6.4.1 (79825abcba525fcdf90b791dcacef51065a7a4e7)
C         1.15790718419964    0.05971310740884   -0.57596780775452
C         2.58141481894335   -0.00591171907681   -0.06739388740665
C         3.33438039740580   -1.20432216981666   -0.09869768156146
C         2.80067563637289   -2.53608372388972   -0.60050044562276
O         2.43148627227755   -2.57007051583227   -1.97878101276528
C         4.69011092444313   -1.16956796944314    0.31743695558816
C         5.36940085100720    0.03758693485881    0.53170503199991
O         6.71964471925140    0.17677882882937    0.74591630177532
C         7.49037959764172   -0.79607371408961    1.44306722002171
C         8.46635709893084   -1.46790044858007    0.50369573506384
O         9.35921038141868   -2.21725405972434    0.89395002572955
C         4.68006980338380    1.22869681642179    0.29160938623714
C         5.38896985374747    2.48098735361353    0.39024164379800
C         6.12072737988740    3.39616462188885    0.16012600068555
C         3.27765001284394    1.20069239170219    0.19255147394815
O         2.45267522040097    2.29975017242864    0.08690283953320
H         1.01707064171263    0.47004439954411   -1.57563100195892
H         0.69170091380386    0.85232492249722    0.02572970059932
H         0.66160133136436   -0.91708429779786   -0.53770349164132
H         1.97633812525875   -2.85826804441119    0.02413815346574
H         3.65967671063411   -3.21341660973893   -0.50313286097269
H         2.04450934927097   -1.70399592080406   -2.19268315111992
H         5.34662241015346   -2.02780407003993    0.24155018475366
H         6.93084835015075   -1.61016837343079    1.90900439503590
H         8.04242996680904   -0.21819917465687    2.19238009795541
H         8.46894229609725   -1.17416396373779   -0.55964447859036
H         6.82075892196435    4.17513223696023   -0.05098431043257
H         2.97598567835830    3.11180958686719   -0.01949891831849
