28
 energy: -47.947796542850 gnorm: 0.123492085065 xtb: 6.4.1 (79825abcba525fcdf90b791dcacef51065a7a4e7)
C         1.20647182003879    0.00295156380482   -0.68986758396396
C         2.66157322869909   -0.02009754117651   -0.27577017307044
C         3.58972774281791   -1.08489535714861   -0.36989513789912
C         3.23980657905989   -2.40951739652699   -1.02804957756681
O         4.14848656366477   -2.78099990096604   -2.06410683970188
C         4.93930832156861   -0.93351591326648    0.04010203528451
C         5.45515853141882    0.26545831128262    0.55091310750540
O         6.78800878391032    0.42056970287300    0.84734186645550
C         7.61695481526107   -0.72041367419268    1.04098880545047
C         7.92976705166034   -1.43755393371850   -0.25290469193197
O         8.34550248040924   -2.59425992252937   -0.26744905297576
C         4.49683344696819    1.26062640536125    0.75784171866243
C         4.90446381749820    2.45769143513740    1.45165148704380
C         5.17063119548332    3.53465574884899    1.89355024657050
C         3.16818947243971    1.16831273557417    0.30666396079309
O         2.24232521613277    2.15229748098646    0.57910193806059
H         0.58573731059611   -0.83395694482940   -0.37079702636266
H         1.21197512065410    0.10971775213290   -1.78357337708629
H         0.69118978403566    0.93830099658067   -0.44182990980762
H         2.20516468618016   -2.25774099725085   -1.31087201683967
H         3.42510102966008   -3.15526710248667   -0.24340540628104
H         3.93859151693063   -3.72754855885213   -2.13880742167253
H         5.61603537387503   -1.76054846181743   -0.13707865387574
H         7.21483944973095   -1.26187027900015    1.90008761328627
H         8.60833877275399   -0.40188501433696    1.38137935121782
H         7.74649050347546   -0.84822810330181   -1.16728152237558
H         5.40391866003938    4.45885100622303    2.37608765938458
H         2.68406083216010    3.01123134628879    0.68735129605895
