28
 energy: -47.957099671018 gnorm: 0.112916642222 xtb: 6.4.1 (79825abcba525fcdf90b791dcacef51065a7a4e7)
C         0.93301091537826   -0.03811640524309   -0.10901501827527
C         2.43139565951907    0.05797062232508    0.07790336649876
C         3.15553328548991   -1.15192762394156    0.20398130003971
C         2.56638051109844   -2.53604120288628   -0.01365199155870
O         3.45663555564781   -3.24812132148956   -0.87243082333565
C         4.55911773599508   -1.15023562412660    0.40972142077741
C         5.26150332302874    0.06270419245311    0.40943700990287
O         6.63135600116286    0.03924030182944    0.51607870014868
C         7.31836683656820   -1.20753642453935    0.50848658103373
C         8.77733813754348   -0.83657168000800    0.36674760554865
O         9.69575953118788   -1.63832224008218    0.20953941679831
C         4.59424632428714    1.25864251783370    0.13363710656117
C         5.30593149220009    2.51320771613559    0.12529519389407
C         5.93728940853147    3.52096850938057    0.01677290931674
C         3.19128717146032    1.25346984310538    0.03846955495021
O         2.52403599608771    2.42616565933607   -0.24301480808932
H         0.65490162628453   -0.82557426710471    0.59105537234845
H         0.64183976534999   -0.15606884433624   -1.16207163929731
H         0.39406643610728    0.88464206603761    0.13587777485100
H         1.58581092323473   -2.51795064985406   -0.47372205918282
H         2.43913220459849   -3.22249895627451    0.83412554226327
H         3.64359759002475   -2.68895370532763   -1.64571424073540
H         5.10118300604374   -2.07785428828592    0.54764965088073
H         7.02484662858180   -1.77193095856514   -0.37933518258082
H         7.17772981647803   -1.70648495680560    1.47359795993023
H         8.98183381743825    0.23927657937368    0.49983500918447
H         6.53565889241958    4.40589271072667    0.03306367589644
H         3.06049103668726    3.19560626784165    0.01152949607038
