28
 energy: -47.954661091398 gnorm: 0.110248733221 xtb: 6.4.1 (79825abcba525fcdf90b791dcacef51065a7a4e7)
C         1.38875478329300   -0.10931128727668   -0.81261713365953
C         2.75986794601285   -0.06137549971059   -0.17458979573388
C         3.55920834999053   -1.21682218693373   -0.00103125827622
C         2.98436350934447   -2.60509615107004   -0.23012607382839
O         2.67532372360462   -2.84961794224025   -1.60191932262542
C         4.91933021107514   -1.09436053904491    0.38296459893931
C         5.46483527417922    0.15991287336996    0.68921776023146
O         6.72370282225106    0.42775631248931    1.17081068675251
C         7.46377484435957   -0.76963880385527    1.38301830744542
C         7.81147421293538   -1.46536621225194    0.08634157147196
O         8.76084667157296   -2.24299637178026    0.01563442026472
C         4.70743980073436    1.31256798696784    0.46717218598919
C         5.28909915795888    2.62249259764668    0.62924957253453
C         5.79943878320007    3.69895894691419    0.71137976563460
C         3.40225267631246    1.19487553713217   -0.04274255329635
O         2.70071815876492    2.33538359012877   -0.36948977750227
H         0.68070276099729    0.68961308162922   -0.59372129649063
H         0.97991269068348   -1.10474233423895   -0.58993610695963
H         1.44715122445870   -0.09614078214080   -1.90730120677639
H         2.11912492462177   -2.83857190017228    0.37844578977258
H         3.79217676759705   -3.31428495475774   -0.00511027695396
H         1.90280747048141   -2.28496358071097   -1.77505094641144
H         5.51806585050160   -1.99056882343392    0.27497536379145
H         6.84310178333108   -1.46056424512126    1.95774413135934
H         8.42780038347546   -0.67728919509881    1.89516544681910
H         7.25776657184861   -1.04377214656843   -0.76960615426358
H         6.13120478207673    4.71304939268261    0.76573186247732
H         3.37045236891549    3.03940279223440   -0.34878431285969
