28
 energy: -47.953772785635 gnorm: 0.110114626314 xtb: 6.4.1 (79825abcba525fcdf90b791dcacef51065a7a4e7)
C         1.07245827068111   -0.05434552400496   -0.25239455818777
C         2.58455752671804   -0.00748289977654   -0.22616920423190
C         3.39715125262312   -1.16181471195386   -0.33263139999848
C         3.01330174439126   -2.57002767261700   -0.75669676894175
O         4.00739994324904   -3.24300562603669   -1.52869589950985
C         4.76628822912372   -1.03660314608556    0.01689279637970
C         5.32333577376385    0.17104792680033    0.45943714644048
O         6.58156626041904    0.42109689258170    0.95213474561271
C         7.40533444333150   -0.72514080175182    1.13663098792366
C         8.13157996615034   -1.38473413180490   -0.01393674601562
O         8.82688388117383   -2.38229045275577    0.16620231812569
C         4.57442571342959    1.34820675447640    0.38874913553640
C         5.17082656277408    2.57907660118597    0.84674985381301
C         5.51254795257290    3.60079232755401    1.36181799922096
C         3.23047431374967    1.23506648082513   -0.00921055884729
O         2.52512899642314    2.41480541495959   -0.11107851754811
H         0.69103261678528    0.65337452935367   -0.98804393374663
H         0.70851934332184    0.34007255865833    0.70656555526733
H         0.70874926436904   -1.08514740843503   -0.33653765711576
H         2.07959577531665   -2.59971366221767   -1.30516769102018
H         2.87612505319394   -3.12537027070683    0.18081071577819
H         3.93586349638121   -2.89125309849445   -2.43243433760435
H         5.38141359357565   -1.90781984927832   -0.17267929774258
H         6.82996428840629   -1.50685606238114    1.63742358195758
H         8.12094876635435   -0.34258597276727    1.87264479761371
H         7.95720059264503   -0.86225319326090   -0.96975352700370
H         5.93137801701472    4.57874724238275    1.45973550877591
H         3.03443057182474    3.23709147856431   -0.01582520326188
