28
 energy: -47.949835360978 gnorm: 0.110972734003 xtb: 6.4.1 (79825abcba525fcdf90b791dcacef51065a7a4e7)
C         1.06358533103899   -0.12531736298830   -0.43352090850885
C         2.56767194650583   -0.05264731932979   -0.28597241801010
C         3.43800448292333   -1.16647145676511   -0.20824352062707
C         2.82074061208370   -2.49000580163413   -0.62952464998342
O         3.64104343834223   -3.25215655760051   -1.51459115300957
C         4.83046329774285   -1.02297638498624    0.02164508905994
C         5.38641489825974    0.21272063219327    0.38016884012412
O         6.67438294148014    0.36282063541177    0.83517176912362
C         7.47161391631996   -0.77243862895441    1.15470721813066
C         8.37863045130798   -1.31737250586013    0.07458217723240
O         9.02062439358562   -2.36505312594861    0.10958682576137
C         4.55914730468267    1.33838907269514    0.37211555826912
C         5.11345660722574    2.61300908526922    0.75758178571794
C         5.57044479107325    3.62312620481302    1.20119977551768
C         3.21861682053394    1.17792773066382   -0.02108690156048
O         2.45480158313772    2.32511962191390   -0.03558192414015
H         0.70972473631840    0.73812471504628   -0.99635628947330
H         0.61096054705748    0.00478058617542    0.55936729977929
H         0.71172589143466   -1.08043859074650   -0.84077415011958
H         1.93945183710630   -2.21601009967961   -1.19676790086140
H         2.49693099791309   -3.07102376668476    0.24437957004772
H         4.06378067930370   -2.55464872130763   -2.04408762372613
H         5.42413502382983   -1.92848044836347    0.05249327847238
H         6.87068085729656   -1.58681454657867    1.56530934523917
H         8.05121822870181   -0.35487214271662    1.98528861334252
H         8.47073076306982   -0.53531948643073   -0.69800492033614
H         5.91724131123471    4.39099552061644    1.85809486418947
H         2.87896415581457    3.16970474333015    0.19108466968117
