28
 energy: -47.953755519811 gnorm: 0.119514532618 xtb: 6.4.1 (79825abcba525fcdf90b791dcacef51065a7a4e7)
C         1.36403861998099    0.03485319021703   -1.12892027214053
C         2.72528401251260    0.07421088055334   -0.46953421447050
C         3.55554062943568   -1.07192520928587   -0.50374983528663
C         3.11959806480602   -2.40083658134692   -1.09888366694879
O         4.01457687269233   -3.49275528822359   -0.88950438351605
C         4.81916325980933   -1.15358216646727    0.13575868491540
C         5.35551146289523    0.01880741874952    0.68566944783866
O         6.53392228564432    0.08385818105084    1.38961241109161
C         7.50256006742816   -0.90382852561676    1.05388997707879
C         7.82691825520256   -0.67444736059808   -0.40504048139150
O         8.38579203457710   -1.49326982688864   -1.13181836956683
C         4.58414440889543    1.18205350949505    0.74412770822601
C         5.04074457121994    2.25460089436216    1.59363203399379
C         5.37053558501078    3.28230275414130    2.10455129893654
C         3.28785283181099    1.18979120231926    0.19919993987851
O         2.59676856109803    2.37038527089752    0.36734638102064
H         0.54945601456318   -0.33470302844088   -0.50649230046510
H         1.30061367488566   -0.39089723497319   -2.14002635333056
H         1.08260536512007    1.08650269283018   -1.25832458682513
H         2.95601644114900   -2.28844459212702   -2.16383321674488
H         2.11404995707062   -2.55605512758466   -0.68545491149509
H         3.69649837271411   -4.28063388757237   -1.36243550779809
H         5.23334318304402   -2.15067224164241    0.22294645044422
H         7.14701336944078   -1.91144926063090    1.28018576960175
H         8.37106848460895   -0.72491053953280    1.69720161817053
H         7.44855374987302    0.30578895127200   -0.74113167624050
H         5.73289655514227    4.19193920827670    2.53193674365150
H         3.15290045374277    2.99796974764065    0.85874306917306
