28
 energy: -47.952427723297 gnorm: 0.118021689556 xtb: 6.4.1 (79825abcba525fcdf90b791dcacef51065a7a4e7)
C         1.36978326482467    0.04848440958946   -1.08740640190915
C         2.72390014633944    0.01662346680714   -0.41310646964840
C         3.54112986324542   -1.13913739609672   -0.39126311666190
C         2.88820925447790   -2.40761285364963   -0.91557250199838
O         3.78431349012920   -3.50918046374648   -1.05930563889179
C         4.84997858857195   -1.08736144885201    0.15336100004756
C         5.39155951357438    0.15934072082464    0.49540249823382
O         6.69832669908037    0.38258918485447    0.85725745526061
C         7.67922324486150   -0.63365487809991    1.03497548938012
C         7.92702158190869   -1.19661012600460   -0.34632078816151
O         8.63194037291026   -2.14107427858519   -0.69573915186987
C         4.54259792749291    1.24793238948916    0.70940804277963
C         4.95994829870739    2.45590231669126    1.37808324399720
C         5.28649870556270    3.48395910954952    1.89036810906073
C         3.21408706370135    1.16569339975359    0.25589547572625
O         2.43266352972740    2.25128019549564    0.58838852645414
H         0.88380101458194    0.99095878338494   -0.83621620022937
H         0.83601650482592   -0.82821141864389   -0.69482629543888
H         1.54498782054014   -0.10913821029901   -2.15809557572996
H         2.34635302343465   -2.19857724761047   -1.83001462259267
H         2.22621215435998   -2.63200596724193   -0.06848885497873
H         4.24329521864627   -3.46684302058268   -1.91553795657021
H         5.49495074761664   -1.95725930575041    0.17834035719658
H         7.31286120884838   -1.29715645771531    1.82140240728747
H         8.56615888711912   -0.13148505009985    1.43664576876862
H         7.41894668016818   -0.54280641673595   -1.07527951185572
H         5.54192152058346    4.48482135220671    2.16319814355558
H         2.83911646918567    2.72504733934916    1.33334246216991
