28
 energy: -47.953904399386 gnorm: 0.113608205660 xtb: 6.4.1 (79825abcba525fcdf90b791dcacef51065a7a4e7)
C         1.26450538142348    0.08008501996218    0.58983454044442
C         2.70970719565110   -0.00959329297319    0.15088403687687
C         3.46209276050666   -1.18788132226207   -0.07200152533091
C         2.80346064226444   -2.54267995851623    0.13038426503786
O         3.40579677881973   -3.68813731648063   -0.47147271810449
C         4.85167412401066   -1.11527474771529   -0.34799620620200
C         5.53617859578957    0.10762649617115   -0.37112062372362
O         6.89260301286744    0.22861288377636   -0.55522505826410
C         7.77288541710432   -0.87113048713897   -0.34989329198443
C         7.87882370645564   -0.95718530696081    1.15598641132725
O         7.47972841118714   -1.94329437763777    1.77188256902251
C         4.80352517435183    1.29450104925119   -0.29293044656382
C         5.47401747347149    2.57145635386909   -0.27491916624063
C         5.73907363612283    3.73580523003778   -0.27785788914554
C         3.42198807003241    1.19913430801402   -0.04872070988594
O         2.63905386217824    2.28264107667224    0.28698773032961
H         0.63495733242263    0.00422919898562   -0.29642070219016
H         1.00133840304033    1.04689399519752    1.04110519917158
H         0.87610061525673   -0.74518840329100    1.19809627455438
H         1.81132680909680   -2.54824523052196   -0.30452714437026
H         2.76330946644377   -2.84089186434009    1.18660425456961
H         3.64411749087484   -3.38452197469022   -1.36400363114735
H         5.42764296423102   -2.03147502416922   -0.39460390546207
H         8.69002022200085   -0.57726525736510   -0.86509205154292
H         7.37946354306876   -1.81977898932230   -0.73127712687444
H         8.30189014686156   -0.07070525417164    1.65812993632493
H         6.04112251125011    4.74693594326680   -0.11117428735801
H         3.16782031322445    3.09808513526060    0.29551357095776
