28
 energy: -47.950325206625 gnorm: 0.117374100794 xtb: 6.4.1 (79825abcba525fcdf90b791dcacef51065a7a4e7)
C         1.08570700616411   -0.04950521434852   -0.10654279502605
C         2.59318842221862   -0.17199638676175   -0.14924797707985
C         3.35020777643016   -1.24281944586858   -0.68252499190784
C         2.72346265780357   -2.62139659771118   -0.81272182740324
O         1.99237743497666   -2.98666446293029    0.35740935999861
C         4.74621808210696   -1.00997373207123   -0.77906124494749
C         5.42550124603083    0.10129014635129   -0.26114663657384
O         6.78307050029146    0.29477994830749   -0.17177790783434
C         7.65052872801687   -0.80215027989161   -0.43777419982137
C         8.85625777189431   -0.60036738380374    0.45205902577673
O         9.57841145366576   -1.54649924887836    0.75921498737161
C         4.67925641203603    1.12645107679352    0.32513800187592
C         5.23483693769024    2.40367831270019    0.69999806181572
C         5.83184892512846    3.35990879105212    1.09391642770042
C         3.28168378131288    0.97101338192290    0.32794310721640
O         2.49931553590416    1.91137592512234    0.96299528949718
H         0.53529319991115   -0.96440682196200   -0.32456319656962
H         0.68012991143083    0.71992562937345   -0.77818634557510
H         0.80364854280678    0.11896120694979    0.93939167708926
H         3.47791173729654   -3.32810159617060   -1.13657840006220
H         2.06688133798368   -2.58557607332645   -1.69235867812390
H         2.33345796627506   -2.49804093271633    1.12585036911125
H         5.31992842917935   -1.86196033052062   -1.12302433753057
H         7.97446865520618   -0.85372648637919   -1.47956381525185
H         7.23775262999735   -1.79638593490663   -0.23460004688649
H         9.05684084316199    0.43692166311524    0.76951466242747
H         6.18903824880381    4.35592753271855    1.24144515318016
H         3.09825080901874    2.48642135762008    1.46818332801093
