28
 energy: -47.947038235130 gnorm: 0.114943647514 xtb: 6.4.1 (79825abcba525fcdf90b791dcacef51065a7a4e7)
C         1.34292348069207   -0.05529406078519    0.86463780048952
C         2.78404889010065   -0.13365088334923    0.41038478888146
C         3.46276790130435   -1.33867842450494    0.10810375910062
C         2.63514240885324   -2.61067685072941    0.02271251182633
O         2.74051607532137   -3.26808573134779   -1.23975458233166
C         4.84556299395546   -1.24343282269383   -0.19386834424980
C         5.48741527638999   -0.01347076222406   -0.39333650957116
O         6.76217527377667   -0.00903740599920   -0.90654859600664
C         7.77569084446623   -0.75427700754784   -0.24029199974303
C         7.73033891762093   -0.60773707400990    1.26395906981486
O         8.40014763828638   -1.26261116165532    2.05989401458605
C         4.73797761630339    1.16062050057290   -0.28647745711695
C         5.32053635141304    2.47458533592262   -0.40739457155766
C         6.19599390531804    3.28133499520640   -0.50067263646041
C         3.42660811485414    1.11484024442111    0.21908381954997
O         2.73801174945286    2.30394976498806    0.32644602488950
H         1.16006118265656   -0.87700966964128    1.55664794952294
H         0.66364572928786   -0.08284296738452    0.00124654620788
H         1.20588672363520    0.90627934290802    1.37308086248182
H         1.58108058810955   -2.37030460044747    0.09114721452524
H         2.93650305435416   -3.34981969883549    0.77702858264136
H         2.59451210916895   -2.55647413585561   -1.88619270571584
H         5.39165023889253   -2.14740698276147   -0.43460631402366
H         8.68661205492331   -0.42193977022054   -0.74298205757829
H         7.71939006446972   -1.83941308230458   -0.37985668807082
H         6.85548706233501   -0.03932810366176    1.62246386662547
H         6.70743425604361    4.14967542521882   -0.14596719554484
H         3.26090910233593    3.06408211819830    0.02084362753679
