28
 energy: -47.956259631799 gnorm: 0.106546747041 xtb: 6.4.1 (79825abcba525fcdf90b791dcacef51065a7a4e7)
C         1.25296377288526   -0.16992703577119   -0.21909644714930
C         2.76337313980264   -0.08137629693011   -0.20683461822755
C         3.61260957136581   -1.21159145061422   -0.13243103555256
C         3.14922964595445   -2.61477891075839   -0.48821134477903
O         2.69614120527000   -2.69374486812057   -1.83935473488518
C         4.99681655023973   -1.01011433855430    0.10370277742087
C         5.49002314266599    0.27218207887181    0.38124871208759
O         6.74868956208701    0.46472932329242    0.89806954537605
C         7.27052929482472   -0.72334132251243    1.48344564227993
C         7.92794940593504   -1.59937609191315    0.44101390979810
O         8.27702741590169   -2.76783824995937    0.59547089348670
C         4.71065240957770    1.40229300517697    0.12241182787234
C         5.36782649940244    2.66213373948707    0.37024794923021
C         5.77320592275011    3.74879919234487    0.65449685270580
C         3.34493689150869    1.20972723158375   -0.15166397981344
O         2.59801908362332    2.34908006491016   -0.36061842741397
H         0.92778309207695   -0.88020272762214    0.54070561734264
H         0.99019431657045   -0.56285036387466   -1.21115750211811
H         0.81043657272494    0.79563844994037    0.05250951881013
H         2.38241844307239   -2.96592828444575    0.19164389358618
H         4.06121692990753   -3.22493542176947   -0.44204471821466
H         3.22807096301386   -2.05751118298382   -2.34714199295784
H         5.70325433302581   -1.82589569279910    0.00999162392271
H         6.51803073914510   -1.36362542084466    1.94896146813959
H         7.95716042549399   -0.30790600126184    2.22917989134294
H         8.24199339003605   -1.08159626204526   -0.48108187770063
H         6.26326556708683    4.62784830892035    1.01298878744816
H         3.21809272959417    3.09731965830155   -0.34443665561890
