28
 energy: -47.950366899011 gnorm: 0.121213242417 xtb: 6.4.1 (79825abcba525fcdf90b791dcacef51065a7a4e7)
C         1.44635767369072    0.07533818354964   -1.11980827196056
C         2.74279462174702    0.02828163420345   -0.34111387801864
C         3.53960977205367   -1.14185096628185   -0.34097467420219
C         3.11712655408132   -2.49685899075898   -0.88475479379947
O         4.15415908057562   -3.46253922763712   -1.05545462425852
C         4.67757796122446   -1.21433041046222    0.50291885979825
C         5.29351342215714   -0.05008844917558    0.98222330863975
O         6.45369630686445    0.05044203399239    1.71180446486000
C         7.46890134548664   -0.80279140378067    1.19426686379984
C         7.48184587442880   -0.83949839459098   -0.31728434980816
O         7.34027236299908   -1.87041130566659   -0.97164796582634
C         4.60273004563308    1.14097279614180    0.74609322590796
C         5.27731809816731    2.33012953058970    1.20580665553598
C         5.63652090936351    3.41797599848429    1.54275640388079
C         3.38671736184226    1.22997542685821    0.04554366058757
O         2.85288094315671    2.48976449893776   -0.12065869366698
H         1.46994745233583   -0.28335063882263   -2.14855462271832
H         1.24689369181346    1.15549077147511   -1.15306749610167
H         0.54618963768247   -0.38488406386102   -0.69576839828038
H         2.60398609320706   -2.32694254569409   -1.82354322554974
H         2.42970086894065   -2.87578731227762   -0.11663866492948
H         4.94111262683797   -3.08091451080608   -1.48049245688213
H         5.17292836287652   -2.15511021138104    0.71003400734855
H         7.29472512096126   -1.79691196326333    1.61177104697180
H         8.43167538445977   -0.35812177432459    1.46904578450032
H         7.50998105333812    0.13501600345401   -0.83353072191383
H         6.17440953519309    4.31648653257587    1.75431472151699
H         3.52587609294820    3.10792541300008    0.21035532053112
