28
 energy: -47.959617705669 gnorm: 0.107561838089 xtb: 6.4.1 (79825abcba525fcdf90b791dcacef51065a7a4e7)
C         1.37593318496842   -0.06469759188159   -0.71809815234488
C         2.81348346258849   -0.00661077292381   -0.24969325227556
C         3.58939512360864   -1.17154471244696   -0.03752656117903
C         3.05421016572437   -2.53460318005896   -0.44481552852398
O         3.24997312063357   -2.68269209616372   -1.85082397710666
C         4.92413669823538   -1.06236416636520    0.43036839258559
C         5.44121828416589    0.19930291252317    0.75500878578060
O         6.72385173612327    0.31873152371757    1.23355615922769
C         7.45523758521800   -0.89929443456636    1.32289392923986
C         7.58269328140989   -1.69826068347730    0.04550987966555
O         8.07446991648505   -2.82306734888545    0.10861247160222
C         4.72624241723457    1.36377826875886    0.46453916996489
C         5.27755743048087    2.69399172479200    0.54870032198100
C         5.54780916947164    3.85701352962882    0.56647639954475
C         3.39520547031757    1.25630573553460    0.02389385177793
O         2.69900065494559    2.44454015998193   -0.03152145232588
H         1.17530603216642    0.87287630294258   -1.23601431048102
H         0.63254692437383   -0.16938485862377    0.08442231601938
H         1.11358769690993   -0.86225774123834   -1.42307295842818
H         1.98693650810856   -2.57052854764767   -0.26275851204300
H         3.54091449912671   -3.32846520696161    0.13746026572312
H         4.16160205891181   -2.39866969972495   -2.03481969934440
H         5.49367197821866   -1.94685013187019    0.68853398343563
H         7.21471629901908   -1.56925180604407    2.15128358121326
H         8.41980456190345   -0.45902543423321    1.59846994377188
H         7.18510144777760   -1.15750657326809   -0.82998194911452
H         5.79252302052821    4.88921410201831    0.43967192792618
H         3.30785957684820    3.18375633308936    0.13420701751237
