28
 energy: -47.950869525124 gnorm: 0.113073787588 xtb: 6.4.1 (79825abcba525fcdf90b791dcacef51065a7a4e7)
C         1.26794623548493    0.09137603827063   -0.93524595646320
C         2.72490379323512    0.07265357609500   -0.52750561853512
C         3.49458114363041   -1.08526939586784   -0.26116772771419
C         2.83731182629529   -2.45461341989892   -0.20522470016734
O         3.01542495314602   -3.22504065885165   -1.39342956338116
C         4.85251864432738   -1.03147183917664    0.14564024912628
C         5.41390911938382    0.20382066894452    0.49701148782743
O         6.67391819782706    0.43123735862353    0.99608878025276
C         7.37372569404879   -0.68119428489640    1.54313452128985
C         7.91736155821581   -1.52538465410029    0.41260159268114
O         8.62036562553535   -2.52736093122292    0.52593760826807
C         4.68483165336653    1.36596347002058    0.23350409524261
C         5.36852173760240    2.58157790980650    0.60140166848119
C         6.02836161252593    3.36828827870367    1.21104900268372
C         3.39652322328513    1.30424339051464   -0.32670124833769
O         2.70595219387352    2.43633285003891   -0.70241146069693
H         0.81175430410523    1.04122687219443   -0.65738713811505
H         0.74496518460541   -0.71924919232553   -0.40893880152583
H         1.25064687920180   -0.13845177881954   -2.00706531598334
H         1.77313250442418   -2.49321540799287   -0.00637625205097
H         3.26044709487036   -3.10551716227319    0.57157900088371
H         2.36196671097853   -2.89507159273187   -2.03351019067472
H         5.44230387706735   -1.93021080786184    0.27889557975239
H         6.79711874837882   -1.22756678552789    2.29275062716868
H         8.25281720886391   -0.26294838655366    2.04556547348949
H         7.57616763946414   -1.07549276651047   -0.53511366864375
H         6.80128213733810    3.86256515589106    1.75848531013332
H         3.34594809932906    3.16552917914490   -0.75980152089725
