28
 energy: -47.957520162194 gnorm: 0.123396831912 xtb: 6.4.1 (79825abcba525fcdf90b791dcacef51065a7a4e7)
C         1.23547077647910   -0.11871044425381    0.18210115203617
C         2.74323992637581   -0.02488425800388    0.09750274773376
C         3.56329007428772   -1.17591155640847    0.17983523712838
C         2.86350836596903   -2.50424735437655    0.41661617806077
O         3.44394075211772   -3.54786394085378   -0.36509725100834
C         4.96749419471002   -1.04133260837874    0.02990036894056
C         5.53458864604923    0.22814568615457   -0.14729253925516
O         6.89446473117138    0.38412575045813   -0.26905713379590
C         7.78276234986879   -0.72606990823387   -0.19915240733231
C         7.74365041258568   -1.31882255300885    1.19132110625087
O         8.07748441721798   -2.48969424632332    1.36052679794485
C         4.77474193925577    1.39946922094659   -0.19419801198434
C         5.21681269698574    2.75791082419029   -0.39346933133744
C         5.53860928249116    3.86350420579054   -0.70982665565640
C         3.38629809284828    1.22920573192468   -0.05062905255919
O         2.50196128910710    2.28374303538666    0.02402051257272
H         0.79037405757187   -0.93345134219366    0.75273184350609
H         0.77304442585160    0.05987028790862   -0.79866001054971
H         0.95509739902004    0.72538835270748    0.82304173198587
H         1.81528779359018   -2.42252954200978    0.15572485004940
H         3.02075495623273   -2.72520812868723    1.48084969495029
H         3.35543879294184   -3.31269564373698   -1.30448734250045
H         5.57888474228367   -1.93548522797381    0.03519463695789
H         8.76714630840115   -0.28750414357434   -0.37683492926181
H         7.58268451585294   -1.50115909656955   -0.94706549850342
H         7.48849686166394   -0.62910556508256    2.01361506745870
H         5.74430163286765    4.91180764251816   -0.69746395188019
H         2.96837884362576    3.13526635656368    0.06849929775577
