28
 energy: -47.950064966580 gnorm: 0.117363546078 xtb: 6.4.1 (79825abcba525fcdf90b791dcacef51065a7a4e7)
C         1.76614784877497    0.30669659921168   -1.43031980233188
C         2.90762904236230    0.09251446768330   -0.46053904158373
C         3.61053451695721   -1.13579771551718   -0.49656354428599
C         3.29293881034149   -2.22379657038852   -1.50929602386471
O         3.94420387725578   -3.48294584362720   -1.34343425081358
C         4.81344502683473   -1.22024557948835    0.25060177196913
C         5.24719662510854   -0.20624046590531    1.11559989467290
O         6.54750714002926    0.00965335877337    1.50418937808444
C         7.49563742895623   -0.80476977712285    0.82282483009691
C         7.40632285732073   -0.53635649516040   -0.66253009453393
O         7.71260630155475   -1.30902178361356   -1.56817629185581
C         4.46748489370789    0.93570937325527    1.31451228233062
C         4.86158551132687    2.05660105801390    2.13230548194328
C         5.12918693947729    2.86582392960367    2.96867832413672
C         3.33738848058994    1.05533682904256    0.48629168353263
O         2.69165986944950    2.27252568409204    0.52033431067159
H         1.51758418595984    1.36132347646599   -1.54655860556777
H         0.94209964980749   -0.38210767176493   -1.19769370037344
H         2.11315899475703    0.07475919428833   -2.44407772852521
H         3.54450536746420   -1.91339728799261   -2.51620962457305
H         2.21825055513928   -2.44910785143304   -1.48872650631381
H         4.82817667244848   -3.43635042951176   -1.74594068850058
H         5.41629785837674   -2.12018232871920    0.25480214854419
H         7.52828581438653   -1.86799465724979    1.07063468101350
H         8.46979882682500   -0.35209314142051    1.03791043891068
H         6.88948290285302    0.41944961313100   -0.85303301294307
H         5.42855881184282    3.74764866762742    3.49228493271853
H         3.07881392041459    2.71582637593674    1.29377590716312
