28
 energy: -47.952014259797 gnorm: 0.113452842692 xtb: 6.4.1 (79825abcba525fcdf90b791dcacef51065a7a4e7)
C         1.20817141433774   -0.08871355804840   -0.34307526895934
C         2.71620532433116   -0.10319510828513   -0.22079670315954
C         3.59750809638737   -1.19933812823667   -0.38173332836430
C         3.06630122763150   -2.39324216610727   -1.15803741238210
O         4.13727869147612   -3.18850199194060   -1.66566157824231
C         4.93767483721305   -1.02164414373606    0.04810280522813
C         5.35264059708053    0.17983135640492    0.63871994851725
O         6.56984251843788    0.36085434617977    1.25033217744389
C         7.47126820158869   -0.73357657555909    1.12326358222873
C         7.80494099188419   -1.19303132968642   -0.27811639093171
O         8.42215728538692   -2.24122895206944   -0.45515317186864
C         4.52995067947820    1.30792885829782    0.68501558641621
C         5.09774365334724    2.45468616628287    1.35064160868319
C         5.37288450546671    3.55142517330204    1.73461136785554
C         3.22230092408249    1.15475106920663    0.19108576804875
O         2.42384287578744    2.27215354951032    0.07468350044863
H         0.86760409107085    0.69313865596511   -1.02149565503689
H         0.80895873540707    0.13445103474478    0.65614866367293
H         0.74573721922539   -1.05595082188620   -0.57225536508231
H         2.38800643363536   -2.20745057038708   -1.98199499588535
H         2.52285433301025   -3.08851709400323   -0.50427799710837
H         4.63162945308730   -2.67024923310837   -2.32340155000042
H         5.52526145801657   -1.92424521320588   -0.06760632591001
H         7.05505903444602   -1.55517642328014    1.71034654484101
H         8.45531820985259   -0.52041319635166    1.55497568249242
H         7.43489428537552   -0.60523863131762   -1.13517262854874
H         5.77785925810759    4.50270487793350    2.00380393901804
H         3.00696169283259    3.04923746963195    0.10167776855054
