28
 energy: -47.949076699324 gnorm: 0.117972374465 xtb: 6.4.1 (79825abcba525fcdf90b791dcacef51065a7a4e7)
C         1.27578774041876    0.07414083724662   -0.94934529279477
C         2.67742395287903   -0.03048205005014   -0.38916851540667
C         3.28241312027639   -1.22162248967101    0.07912335060414
C         2.73758206341626   -2.63414315278313   -0.05571036817686
O         2.81881797149873   -3.22515261599786   -1.35232972426540
C         4.55219330095086   -1.12333018819007    0.70392578867130
C         5.28315298908488    0.05879653190866    0.88515201416957
O         6.51695479776735    0.10419601263163    1.48855184155386
C         7.44979816095544   -0.93438301221675    1.20989326428785
C         8.15671634021767   -0.86938987279572   -0.12515153360079
O         9.11697487947388   -1.59680124102315   -0.36967652168197
C         4.71904273497674    1.23341840437363    0.38155588325966
C         5.48452591645448    2.42114106334647    0.67112382830767
C         6.14679083707260    3.40782860254426    0.78870190334437
C         3.43286443047886    1.15023200347035   -0.18076377459248
O         2.90064571625171    2.29038578429309   -0.74331657965698
H         0.87784590127284    1.02841070896808   -0.60504235174181
H         0.60102818306183   -0.76003829946206   -0.71171875895178
H         1.30443622251014    0.13879763233579   -2.04338166978301
H         1.71632454685328   -2.56876733267019    0.29963107434452
H         3.32362786284927   -3.22956311048439    0.65714903323363
H         2.26542802469080   -2.64985667887674   -1.90765361196239
H         4.90641358727657   -2.10130521090084    1.00629673180675
H         6.89814271468491   -1.86217687696056    1.37661938546013
H         8.20695609128594   -0.84840040743639    1.99696838398915
H         7.65122873062371   -0.09730593284382   -0.72959250090394
H         6.49393407388808    4.31185741204040    1.23995101682663
H         3.30935443153422    3.06534453037322   -0.32258888509246
