28
 energy: -47.950644254774 gnorm: 0.124398303091 xtb: 6.4.1 (79825abcba525fcdf90b791dcacef51065a7a4e7)
C         1.30514953265390    0.10603201534672   -0.86393536483224
C         2.73716706797485    0.03517802009591   -0.38057884719035
C         3.48867790504825   -1.16420354039016   -0.40956190603737
C         2.78659261125625   -2.47451826703498   -0.72640125746973
O         3.61573563718774   -3.63228465774962   -0.63042190260197
C         4.83759468551143   -1.15117858000493    0.02934014455719
C         5.38212505742989    0.07099428708873    0.44689100496182
O         6.63967086060138    0.35074065995099    0.92515858247674
C         7.65761203298299   -0.63270044977494    1.07725420921054
C         8.12869626728098   -1.08182546707251   -0.28754189036777
O         8.73497049982061   -2.06124701032578   -0.71670529102606
C         4.57444752976216    1.19233436683052    0.65138891806965
C         5.15685597063231    2.36963295837696    1.24743223835463
C         5.28720117396283    3.50273553050653    1.60107106254696
C         3.28133127038986    1.25137545184209    0.10207800567090
O         2.43939624204358    2.34221791554447    0.13176239882133
H         0.86743565470122    1.02148184612308   -0.46657988637707
H         0.71677284185371   -0.78351824881968   -0.59910549767232
H         1.27123928213915    0.11766548720555   -1.95966872024543
H         2.37804589691326   -2.32669468784333   -1.71874505894315
H         2.00518788144206   -2.58307146086229    0.03764454002013
H         4.39438195444956   -3.58798887953033   -1.21123018723316
H         5.43360908432243   -2.05542062745429    0.05051748448706
H         7.35683907055006   -1.53596323553841    1.61258097631397
H         8.35943768910898    0.02440384486895    1.60244282155696
H         7.74833829990648   -0.38912769151662   -1.05726770168564
H         5.45168112412829    4.30919431027203    2.28222659525368
H         2.99230775977673    3.03248611074752    0.53479383382683
