28
 energy: -47.951898929493 gnorm: 0.114384761285 xtb: 6.4.1 (79825abcba525fcdf90b791dcacef51065a7a4e7)
C         1.16261752125149    0.00682424639311   -0.27991540757836
C         2.66842884009454    0.10779222244201   -0.17190719806574
C         3.43762861337029   -1.02606347066886    0.18422153399778
C         2.83960843304418   -2.39292268845047    0.47457195609178
O         3.79375523289234   -3.33942529302972    0.95504039178987
C         4.84663089896543   -0.90595714029126    0.29677455016816
C         5.49358297310517    0.32333471947546    0.11005788178480
O         6.83885074949442    0.31597951950749    0.39045021171326
C         7.56009189285089   -0.70798111258422   -0.28616605215240
C         7.88266920997261   -2.00131599822542    0.42764819375352
O         8.16142069956779   -3.06009685647419   -0.13118714037691
C         4.71500226906756    1.47824363139231    0.00252448555145
C         5.28229500139485    2.80438774779198    0.00698787985683
C         5.41174811271164    3.98578305582388   -0.10928220580363
C         3.32973115894357    1.36060631550449   -0.20857595752458
O         2.55329724103499    2.49898311064281   -0.23893529402079
H         0.95071843478412   -0.59548927147119    0.60317599066154
H         0.96629708865756   -0.55528492354220   -1.20355669940308
H         0.71142307257377    1.00522284649987   -0.31916630796365
H         2.45528268630854   -2.78583321943412   -0.45892870546018
H         2.07241608526016   -2.33054990506127    1.25794202393681
H         4.32505547089496   -3.64371729236685    0.19958231590010
H         5.43350476787681   -1.80293319079280    0.45281416742684
H         8.52594175897782   -0.20653411951439   -0.37894394241421
H         7.15205412736645   -0.87248960497176   -1.28946586739420
H         7.91431261351938   -1.92519433665493    1.52773201016528
H         5.75433873150523    4.97844796990748   -0.30587901272008
H         3.02394757176600    3.28432723828857    0.08716059452606
