28
 energy: -47.954411978112 gnorm: 0.118200445773 xtb: 6.4.1 (79825abcba525fcdf90b791dcacef51065a7a4e7)
C         1.25852641548253    0.10394984819762   -0.70136739272684
C         2.69593493494908    0.08442162232014   -0.22934680428292
C         3.52286536952842   -0.96000444023736   -0.70839268276928
C         2.93294027555712   -2.17756085264997   -1.40105449782508
O         3.78737961296585   -3.27645430215537   -1.71645870326098
C         4.92503244570747   -0.90259266698780   -0.50099805047879
C         5.38278001858401    0.18102398519742    0.26111131534860
O         6.68817422346128    0.42585943363005    0.61384483836776
C         7.77152649296302   -0.27216144841469    0.00918920236168
C         8.00944054153828   -1.69669393766356    0.45685662533403
O         9.04181285249897   -2.31229972246737    0.19945973605838
C         4.58357693964798    1.20969341737757    0.76576922888376
C         5.14145532573658    2.17749201946035    1.67825856732519
C         5.07092364559500    3.11569563081350    2.41362990591614
C         3.19427588165627    1.15372701240986    0.55579700578551
O         2.26195787075883    2.09399675557205    0.93835286096261
H         0.95238834735611    1.14609952766552   -0.61340865622268
H         0.57369459466154   -0.44212100443336   -0.03771562902243
H         1.12124122085134   -0.16764840859825   -1.75460240417483
H         2.50847980556566   -1.85001835945050   -2.34236086422744
H         2.05938016324770   -2.52734589989912   -0.83476280986211
H         3.97398846141514   -3.67250794206881   -0.84817930102894
H         5.58043695915993   -1.71025450492612   -0.80342590787197
H         8.59887412406291    0.40087222375114    0.24465546332174
H         7.69967477575399   -0.19839322870157   -1.08148213292997
H         7.13264729215982   -2.15749535842883    0.94252715541522
H         5.13394155482327    3.97735808680213    3.04209536629271
H         2.64525453316632    2.73880727912931    1.55634858765533
