28
 energy: -47.946516559524 gnorm: 0.124560945152 xtb: 6.4.1 (79825abcba525fcdf90b791dcacef51065a7a4e7)
C         1.13009923060525    0.18355662901319   -0.64188179124399
C         2.53242923684683    0.08452453265405   -0.08242559305137
C         3.14785016511500   -1.18187074226825   -0.22947927396991
C         2.68111091967734   -2.50787888251150   -0.80748663534113
O         2.72460374348175   -3.56606004722941    0.14931752956453
C         4.55615358323357   -1.15385860161255   -0.06131873917008
C         5.29653672630995   -0.02501689487898    0.31566637566648
O         6.66676304250744    0.07329576823186    0.35079210152417
C         7.48128245270778   -1.07822035848681    0.15827595318449
C         8.92673457042969   -0.67168054633282   -0.01975659222384
O         9.79595934202698   -1.44838398333396   -0.40988003074639
C         4.58398416202803    1.13591560791752    0.62561882697490
C         5.23167390571177    2.41099296472598    0.81316862547588
C         5.66202667703697    3.51860229525475    0.93136246096402
C         3.18064629310492    1.17684193390233    0.54595793267681
O         2.38874046190594    2.28297992657999    0.76735562632334
H         1.18728868351035    0.79147801441642   -1.54448589353013
H         0.42334327411732    0.69332615194758    0.02763498564603
H         0.76394138938450   -0.81677637265860   -0.90107120341464
H         3.32459801775721   -2.72203493481534   -1.65221735578161
H         1.68148294046240   -2.52394479817170   -1.26205116483366
H         3.66285274146624   -3.55207493389981    0.40443260873732
H         5.08956211417360   -2.06651207705645   -0.29769621185234
H         7.19250656593823   -1.60194948006805   -0.75563819940187
H         7.36229090118211   -1.73337362492748    1.02820904846179
H         9.12863289972310    0.40972012778288    0.06264402944008
H         6.28304811207133    4.34097803119460    1.21320071000631
H         2.92991828922185    3.05124188762711    1.01537937399340
