28
 energy: -47.952595231171 gnorm: 0.127766901705 xtb: 6.4.1 (79825abcba525fcdf90b791dcacef51065a7a4e7)
C         1.33241852514207   -0.06168282219952   -0.66372901193888
C         2.77195277104513   -0.01797976920502   -0.19987639865397
C         3.58276943993375   -1.17845423330845   -0.20012265625820
C         2.83083996770881   -2.47732395014280   -0.44048730059071
O         2.14572101431933   -2.52472679918583   -1.69167801512429
C         4.94399764570468   -1.08403404973727    0.18785125238305
C         5.55741167015563    0.14135385480971    0.48232753729773
O         6.82574454026709    0.26481082699833    0.99663235603695
C         7.51115902634892   -0.86868975514503    1.51805074431666
C         8.30597167685544   -1.58624177861708    0.45048623942977
O         8.88851310267494   -2.66532225172232    0.53561583611509
C         4.76225756464288    1.27127125724665    0.27597213011808
C         5.33510831954543    2.59214396542881    0.36335921728023
C         5.50026799330025    3.75495464848019    0.57914920932500
C         3.40685591436887    1.24481408649048   -0.09761103533307
O         2.62865234422440    2.38063330888028   -0.16075330424176
H         0.78528160497582   -0.94072509905572   -0.32393631937388
H         1.36048539919546    0.04488185466067   -1.75710812652149
H         0.83932486576367    0.82048547732747   -0.23881188111064
H         2.04063285957821   -2.56024693769506    0.29585837712362
H         3.64842741450611   -3.20123630893572   -0.32367636089431
H         2.67268235546646   -2.62196142115127   -2.50312588165521
H         5.36733134302251   -2.07263036641760    0.31747082382487
H         6.86387611100631   -1.61618852789009    1.98193994919423
H         8.12542541490788   -0.45823291331358    2.32698236442302
H         8.34443169664889   -0.99010033990893   -0.47693838133146
H         5.80584027353359    4.75360995827525    0.80435006482546
H         3.23002001101095    3.14394948128216   -0.17867019864671
