28
 energy: -47.951985758359 gnorm: 0.117448164041 xtb: 6.4.1 (79825abcba525fcdf90b791dcacef51065a7a4e7)
C         1.12058370629372    0.08281453245771    0.38830880587208
C         2.61594876074046   -0.00892553662027    0.17666016206662
C         3.45246981903128   -1.15100900027682    0.17505458319753
C         2.81957409145941   -2.48640130942756    0.53059081185964
O         3.53486002861107   -3.58991937677350   -0.02414076164487
C         4.83579335704950   -1.11409861022279   -0.13709083453676
C         5.43586575444912    0.10374179868284   -0.48543898048877
O         6.76359497371158    0.29071427926108   -0.78643029044550
C         7.67638072332695   -0.70204330681989   -0.33063616912998
C         7.64130983622072   -1.12230782922339    1.12141403460305
O         8.06406913562806   -2.25483909618302    1.34426765119204
C         4.69548485038069    1.28105890781001   -0.35380882561773
C         5.34291763299492    2.56930139340242   -0.39577641142220
C         5.94820932287133    3.59790217844873   -0.43545142463526
C         3.32422700659850    1.19662770005796   -0.05397338660929
O         2.66091039943677    2.39515307661757    0.09841116341369
H         1.01962896842792    0.07502239675952    1.47333444445481
H         0.50690781232469   -0.70355149155285   -0.07283329030828
H         1.00686794526387    1.12443800293086    0.06580902409015
H         1.77971686499973   -2.46055242418094    0.22803960275374
H         2.93518889594275   -2.55930572484089    1.62029778804936
H         3.67814797448535   -3.50511491211165   -0.98219464062609
H         5.45814040877552   -1.99388055098176   -0.24665002024958
H         8.67366553914438   -0.27969122170474   -0.47193195212546
H         7.53397813897093   -1.57419430924269   -0.97812556326694
H         7.22289801775660   -0.45668728262120    1.89527516776925
H         6.59695211807644    4.44647010299094   -0.41382901916178
H         3.33177116859335    3.09473094789559    0.17019064627602
