28
 energy: -47.953060715255 gnorm: 0.110190849952 xtb: 6.4.1 (79825abcba525fcdf90b791dcacef51065a7a4e7)
C         1.18348393710781   -0.06192494744445   -0.69088773453936
C         2.67240820800416    0.07121834430652   -0.45699581746380
C         3.45333274078650   -1.10957132831958   -0.46116018903327
C         2.88053241434527   -2.44652502507980   -0.90239735831336
O         3.61079714466476   -2.77247824344767   -2.08459072074194
C         4.77608674673917   -1.06930991369228    0.04980167198913
C         5.38195430745269    0.10072733310895    0.52782460111266
O         6.65749646370907    0.35860503861227    0.96931147208334
C         7.64821659387355   -0.61062961316726    1.29419843390081
C         8.07253537781089   -1.50254357085164    0.14932067174486
O         8.13769988983400   -2.72807924176188    0.21883423104789
C         4.60629012540397    1.26174878649671    0.57187272921961
C         5.12566318098504    2.49284178436260    1.11515982524161
C         5.59347273194506    3.45932041103152    1.63769691759913
C         3.29452349353570    1.23204050645302    0.06614183972396
O         2.59806960786486    2.42008684938124    0.00983080643989
H         0.87949765617291   -0.88196583821817   -0.04076582869254
H         1.00436966557337   -0.22872435154298   -1.76220360925259
H         0.75253936678354    0.88768773457844   -0.35259885466909
H         1.83920745443025   -2.52546212218518   -1.19035518826873
H         3.06779360943109   -3.20253809816165   -0.12811019701816
H         4.52699840370632   -2.49024237304165   -1.92177599251316
H         5.31650322107908   -2.00802078543268    0.03944447388250
H         7.41844785865168   -1.24633029355705    2.15211087416287
H         8.50406625317766    0.03519444785823    1.51914515101473
H         8.13174664720600   -0.95649157687251   -0.80739321491334
H         5.98734248931834    4.29208240095420    2.17878503846031
H         3.05422026664775    3.07341392397813    0.56634313824931
