28
 energy: -47.948333502394 gnorm: 0.120077739350 xtb: 6.4.1 (79825abcba525fcdf90b791dcacef51065a7a4e7)
C         1.42738321114312   -0.04886883739618   -0.92901045700295
C         2.84737381120406   -0.01772700706342   -0.40748872202269
C         3.48134416827574   -1.21098321521334    0.01482148070857
C         2.70963919907263   -2.50108239311639   -0.20956920281559
O         2.93629923676102   -2.73545132115398   -1.59910497238647
C         4.76017592106887   -1.16433936703234    0.62702638484898
C         5.40803495708253    0.06050017492824    0.83824978707429
O         6.64510286904890    0.28803734471943    1.39170182960871
C         7.64699072946279   -0.72315794723329    1.37761203362060
C         7.89382993096399   -1.19690995643239   -0.03693081587429
O         8.49652590107966   -2.23534529932736   -0.30041864514216
C         4.74387180659143    1.22227752444420    0.43734250667230
C         5.35102835348496    2.49854836004504    0.72542736092229
C         5.62063824968227    3.53380305344403    1.25602131929992
C         3.50529631062102    1.22456846463913   -0.22846788646799
O         2.91571013346274    2.33641613492494   -0.79047850556138
H         1.08811597193618    0.93460880404138   -1.25336007720800
H         0.72852377393061   -0.15227657581030   -0.08727178528549
H         1.18541977442122   -0.91442413121309   -1.55685164278353
H         1.62906983121078   -2.45239641906544   -0.15034113393813
H         3.10811002338722   -3.29214230631438    0.43972914383793
H         2.57173548852471   -3.60384048249231   -1.84114630538792
H         5.17274743902388   -2.14137091509336    0.84732033338238
H         7.48173553576924   -1.61373673716935    1.98792582304661
H         8.47797287397081   -0.19115222330311    1.85364456215849
H         7.49303311167732   -0.49891899204955   -0.79135161298317
H         5.90457809704419    4.53185737566889    1.51032036790649
H         3.56017105430192    3.06303125851556   -0.75419838463572
