28
 energy: -47.942796445050 gnorm: 0.118356538968 xtb: 6.4.1 (79825abcba525fcdf90b791dcacef51065a7a4e7)
C         1.08263770503904   -0.09740074129349   -0.36851660832039
C         2.58630973149043   -0.10588891113239   -0.20050942835373
C         3.32001391363891   -1.29579160579130   -0.42396956853843
C         2.53844484760345   -2.58253544032628   -0.63295693720761
O         1.42715317310195   -2.75835864757560    0.24524020715213
C         4.73494596093658   -1.35555400781591   -0.34164764090564
C         5.37121669470675   -0.12766502112708   -0.11357582705554
O         6.72059327697157    0.06153265015344    0.06476775622897
C         7.71188182189349   -0.95773836391221   -0.00542730220882
C         9.01332168013387   -0.19153529050244    0.06866169182597
O        10.13213438846019   -0.54201984376832   -0.30070930332707
C         4.67122288508980    1.05041701410946    0.15789670742543
C         5.39691596170100    2.02898912935054    0.93007891893476
C         5.96686087573119    2.74126415092078    1.70066233780917
C         3.26753141488666    1.10189522444465    0.09172848497574
O         2.60318804763774    2.26152558090485    0.42874237368466
H         0.69971601212840   -0.97267250962187   -0.89273365452270
H         0.79027359366685    0.81255046347633   -0.91085754629194
H         0.58167001935220   -0.18478222735734    0.60272624538965
H         3.31191934256567   -3.28078900535891   -0.33683598323668
H         2.07607577313709   -2.80810386414100   -1.60325423482921
H         1.85331660874471   -2.77662790075228    1.11910600305388
H         5.23710988915890   -2.31504040844554   -0.31814106425156
H         7.55286517259558   -1.49492282243730   -0.94301428325209
H         7.53477476582398   -1.63181280552010    0.83980942167824
H         8.81888729025536    0.75585167001670    0.59935315759390
H         6.30175988096628    3.58303191503441    2.26694138346396
H         3.28730153785474    2.91512698828659    0.65102506906624
