28
 energy: -47.949018782708 gnorm: 0.113643688924 xtb: 6.4.1 (79825abcba525fcdf90b791dcacef51065a7a4e7)
C         1.16917407224489   -0.08063191629349   -0.28472513422232
C         2.67415635972969    0.02521118772156   -0.17003608441296
C         3.44171047845385   -1.14064776806982    0.06609577379875
C         2.89789323454487   -2.52991446053384    0.35667532254662
O         3.73448175191331   -3.30616421235876    1.21380377535096
C         4.81688234326010   -0.86918943775119    0.28425595598674
C         5.44251947281391    0.38185999424203    0.19468990716810
O         6.78190691150739    0.39936484656122    0.50153550766947
C         7.61647731745480   -0.44743932643051   -0.28134932553543
C         7.77988532100618   -1.82385746636486    0.32286335344003
O         7.86668590125484   -2.84752762517286   -0.35210427227512
C         4.66226053080561    1.51263087673431   -0.05852767249158
C         5.29447327831398    2.80648819773519   -0.14062198465154
C         6.04471743163630    3.70114819882067    0.10975556609400
C         3.27617888578202    1.30806411684175   -0.17814413090090
O         2.44491107222460    2.40305918806329   -0.27639207845556
H         0.69700974149225   -0.13806936535466    0.69573138660168
H         0.73965301153695   -0.93414711115862   -0.82753737369052
H         0.68976352872940    0.81157553161526   -0.70430614542744
H         2.67863119985890   -3.10545459200629   -0.53449590734808
H         1.93494681160850   -2.54653059532492    0.88450219911188
H         4.49562281644011   -3.73363545280933    0.78540783138756
H         5.44540068776760   -1.68834526719246    0.61179794219115
H         8.56840625601809    0.08634596230509   -0.32409681402454
H         7.24234759598967   -0.64083111571281   -1.29268257901221
H         7.96923211984687   -1.82068293294065    1.40965584909128
H         6.49485876537803    4.65875797537076   -0.03775232173879
H         2.94650915299770    3.23539228729302   -0.26100902861143
