28
 energy: -47.946709742846 gnorm: 0.119132424256 xtb: 6.4.1 (79825abcba525fcdf90b791dcacef51065a7a4e7)
C         1.13726677243396   -0.16688960613969   -0.62965102774786
C         2.60015401092112    0.01975312215125   -0.29134132140557
C         3.44266240109894   -1.10291879487572   -0.47549367731226
C         2.92287306460165   -2.32455283859882   -1.21553756248534
O         4.07675822328258   -3.10062057194774   -1.53706693361193
C         4.78690138178129   -1.11118595554712   -0.02235530523021
C         5.22504073428212    0.00340135246601    0.70586007093833
O         6.54042288437808    0.18217005741217    1.06114998225013
C         7.56614682488357   -0.80414779869825    1.10066219349942
C         8.10274911440011   -0.93349918662672   -0.30704098333601
O         8.97802377673040   -1.68305586249832   -0.73491396127466
C         4.45248302268024    1.15828102495077    0.85068238622648
C         5.10103049894698    2.29091695466023    1.46470292777697
C         5.47879029070747    3.33279365184275    1.90940755980241
C         3.17887672627135    1.19200927877251    0.25556272645385
O         2.45175570002379    2.35578128322270    0.38441452536171
H         1.14418896241439   -0.16817561779290   -1.71936825883753
H         0.45576088635677    0.65804013041476   -0.37932660756090
H         0.75103157182846   -1.15059407979410   -0.33799248447316
H         2.41845378827172   -2.04048421959337   -2.13116558006506
H         2.24526519400887   -2.86184774945784   -0.53855537416625
H         3.85571446077542   -3.84695836733570   -2.11991341332114
H         5.49113723768930   -1.93411931265900   -0.00939814041815
H         7.22332656788429   -1.66984179510925    1.67160085978505
H         8.35780063740815   -0.37149574505794    1.72216426495863
H         7.61614184469496   -0.10943914788269   -0.85578375966453
H         5.90534376257844    4.19712185144782    2.37026672469464
H         2.92956966550172    2.93290767525130    1.00347397833287
