28
 energy: -47.956322993985 gnorm: 0.116696991459 xtb: 6.4.1 (79825abcba525fcdf90b791dcacef51065a7a4e7)
C         1.22670142787247   -0.08857142192942   -0.66433285174259
C         2.69109447701648    0.00554104841290   -0.29551869855863
C         3.63589251328876   -1.04028466815574   -0.42867253623676
C         3.26013142765391   -2.38028392773241   -1.03977091360414
O         4.39609789445729   -3.06869229430543   -1.56206137275628
C         4.96734263944147   -0.95443667598473    0.05325261074544
C         5.38512470970057    0.22996664464181    0.67551903956886
O         6.70180708816429    0.38099474144035    1.03877844290075
C         7.45003532699379   -0.83004097408588    1.03239595856589
C         7.76311888483094   -1.28223694012744   -0.37607822600420
O         8.48288305821236   -2.25889887533266   -0.57378313292014
C         4.47443505358108    1.28886766125734    0.70616157363705
C         4.89835104262754    2.47119087056325    1.41532043467672
C         5.21999676623530    3.57378328529923    1.74213189835611
C         3.13348170475055    1.21846233984662    0.28871071406114
O         2.34802738545863    2.33468976565310    0.48046811429288
H         0.88742587636872   -1.08835880661511   -0.39442454296851
H         1.04189692940624    0.04202341589130   -1.73969974186944
H         0.62488137142989    0.60537619182905   -0.06586300498673
H         2.60035412421889   -2.25321399534466   -1.88950945761886
H         2.68609828086377   -3.04328187083335   -0.37866366101313
H         4.11124430824137   -3.81589083702753   -2.11536349679670
H         5.60849249260646   -1.82549834862341   -0.00602441011736
H         6.94413285250610   -1.58341434943050    1.64019035638889
H         8.37932804676000   -0.62712847305840    1.57591223494455
H         7.23009476286549   -0.74033871081197   -1.17558545634947
H         5.44001849562370    4.52466212153116    2.17666861278273
H         2.97983950201669    2.92909492516640    0.91877351545939
