28
 energy: -47.948311274812 gnorm: 0.116679035088 xtb: 6.4.1 (79825abcba525fcdf90b791dcacef51065a7a4e7)
C         1.29323368858646    0.35314151113815   -0.88907511347172
C         2.65938934350277    0.10407424275041   -0.28831537140725
C         3.35256449111352   -1.12957989360951   -0.24671743129250
C         2.57279349894683   -2.40246556436429   -0.53299508181002
O         3.13347555267941   -3.14676786565297   -1.61408847725059
C         4.71928028555145   -1.14076245095935    0.13320892608750
C         5.36184062100207    0.00888628817141    0.61278431612238
O         6.66995055283481    0.08491828454604    1.02689407046029
C         7.42002181971326   -1.05320627023786    1.43745382874760
C         8.35779111190528   -1.49096818196284    0.33506764767363
O         9.35292464475364   -2.18869919621250    0.51917879014915
C         4.69218974783943    1.23261233672073    0.53776289495049
C         5.18903587460590    2.58090577568665    0.66325365675822
C         5.46094758744143    3.73652732931612    0.53451140091405
C         3.37729517878999    1.28048802314921    0.04163971675414
O         2.70619731707302    2.47671135113818   -0.09382418320238
H         0.58933381308378   -0.44865835165034   -0.66732039984539
H         1.34805957547226    0.49909485019417   -1.97687721387910
H         0.91306785852095    1.26476768737424   -0.41333517439629
H         1.54495354986171   -2.25283792068140   -0.84067195001396
H         2.62677620629242   -3.04909741112716    0.35306149021764
H         3.82524810934612   -3.80490763823921   -1.42998732068675
H         5.11802813737523   -2.13413858968852    0.29915870507396
H         6.81499376409680   -1.92312107985811    1.70224064478416
H         8.03476618959497   -0.81433781443275    2.31221070959935
H         8.10661330984486   -1.15737601629927   -0.68601324719111
H         5.49964869128755    4.78162165233570    0.31614850924085
H         3.32440438128569    3.20798824835896    0.07251820413910
