28
 energy: -47.948527305588 gnorm: 0.115935615320 xtb: 6.4.1 (79825abcba525fcdf90b791dcacef51065a7a4e7)
C         1.32495059947890    0.13503736811607   -0.75435626724864
C         2.68105951458865   -0.08128704647495   -0.11913945557759
C         3.49178216576559   -1.24116241416243   -0.15841543317307
C         3.04252044254437   -2.55237134838819   -0.78221881115349
O         4.16218447688337   -3.24788604675140   -1.32969024154359
C         4.86921124457434   -1.11187079890074    0.15519891718029
C         5.31611169223264    0.10981858464512    0.67704525433098
O         6.63761348366357    0.43515327378053    0.86733375338437
C         7.59001927356945   -0.59952079786772    1.08839145329657
C         7.97415516561484   -1.38587329359482   -0.14465007102936
O         8.02165187036788   -2.61233975994716   -0.07726831904712
C         4.55177102169243    1.27915008575378    0.68066731968235
C         5.01896424122716    2.62781656550635    0.88882205472369
C         5.35415708399031    3.77187437506237    0.95773641559259
C         3.18578893897206    1.14774776207153    0.37374000593418
O         2.37142111441470    2.25884118444512    0.41789316801349
H         1.29972722109123   -0.47470759803822   -1.65718962242723
H         1.20307050169749    1.21184345377041   -0.93671734074296
H         0.49593299088660   -0.21349129781897   -0.12732006252981
H         2.27952004284572   -2.42694644863879   -1.54090677785430
H         2.60085304629660   -3.27673344792159   -0.08481463653871
H         4.56217468131610   -2.66673214851578   -1.99891251473025
H         5.51150628219122   -1.97215452472420    0.01130895330677
H         7.17887362702718   -1.34524151130569    1.77233783982179
H         8.48655323455401   -0.02635668170739    1.34892578188073
H         8.26881572192365   -0.82547979559377   -1.04804062879078
H         5.72092451998089    4.76411412094599    0.80825666339061
H         2.98437618304320    2.93123023052163    0.75964559654685
