28
 energy: -47.952609565612 gnorm: 0.112792932361 xtb: 6.4.1 (79825abcba525fcdf90b791dcacef51065a7a4e7)
C         1.10723971712735    0.30468697634977    0.36160139297721
C         2.60191242608320    0.12160894544882    0.21407528645485
C         3.28003998557335   -1.11679001802719    0.11094574259267
C         2.69885397432931   -2.51986978321849    0.17279723375359
O         3.67134694377813   -3.55507645557934    0.31321724525247
C         4.68488463841672   -1.04026283273374   -0.07053769222281
C         5.41911641345094    0.15166360981382   -0.00137396800622
O         6.76346528189284    0.24759302903743   -0.26959593187725
C         7.59800871326749   -0.89657994964225   -0.41416142672481
C         7.82425802082508   -1.63489269787761    0.88584148340487
O         8.88473258487484   -2.14417512434011    1.24227007149739
C         4.76829653656124    1.38775168058427    0.00788443724919
C         5.43886200960418    2.62046547845004   -0.32566887729500
C         5.76752106465987    3.73356941012235   -0.60665743462407
C         3.36524038666350    1.30438241529226    0.05102361153030
O         2.56775724046743    2.42455067142323   -0.04340496851009
H         0.75726241966675    1.12490371438731    0.98793484621429
H         0.64592205973995   -0.59821743224080    0.78535994377185
H         0.59456671869926    0.33020852634406   -0.60712554111225
H         2.11182028246461   -2.70315494072019   -0.71900231925265
H         1.97476695166252   -2.51972969465601    0.99853392900761
H         4.03545002201774   -3.62478329930777   -0.58576015882190
H         5.27542846474464   -1.92548493625211   -0.27296087962336
H         8.54502029761331   -0.54727720699006   -0.83138970656980
H         7.19984687670419   -1.60507215174996   -1.14878672719061
H         6.95141334092586   -1.69855385948414    1.55745866370810
H         6.13161385572005    4.72590503756190   -0.76192721576707
H         3.12995550270613    3.21415569661452   -0.11462772557577
