28
 energy: -47.955662124908 gnorm: 0.117354557180 xtb: 6.4.1 (79825abcba525fcdf90b791dcacef51065a7a4e7)
C         1.36534676105018   -0.03438967126644   -0.93626699082365
C         2.80329643311099   -0.07154622520747   -0.46696093246596
C         3.64574492909482   -1.19098719519837   -0.26384234517254
C         2.97977221148267   -2.55656679929096   -0.22015794448093
O         2.41621631687714   -2.76105496066265   -1.51541952740128
C         4.95216564317754   -1.02888785230229    0.26471218193443
C         5.55287575807331    0.23118546868963    0.39093093616458
O         6.84767821631629    0.53350163668081    0.73807772930219
C         7.64629828580443   -0.52178319891395    1.26255235638724
C         7.88216075442779   -1.61815496208911    0.24833350103798
O         8.11663447920896   -2.78531405062300    0.55456538262162
C         4.69279302081987    1.33168715306586    0.36410351552935
C         5.26531391094987    2.57804585069711    0.81054391655130
C         5.69124994822080    3.54298260291283    1.37040754228038
C         3.40287758200981    1.17872592154355   -0.17450489964046
O         2.67668394014518    2.31726328179302   -0.45027387998104
H         0.78176174879624    0.39150365279430   -0.12043819680070
H         1.01563941418425   -1.06865755960837   -1.06123247870887
H         1.21106181959376    0.57868513800515   -1.83195235078828
H         2.16115090081467   -2.50184601100878    0.48721270712759
H         3.69450791031812   -3.36554240925109   -0.01803305047392
H         3.11800341796627   -2.64256067772053   -2.17802381241858
H         5.59692092721263   -1.88635226131732    0.41431416394223
H         7.21042451297162   -0.99454721254764    2.14540626658620
H         8.57685148723944    0.01927182043380    1.46626438322709
H         7.85339382775854   -1.34795746241587   -0.82084655471173
H         6.25604179647824    4.39308221558376    1.68622883479564
H         3.21685106393517    2.99966523619703   -0.01765081166810
