28
 energy: -47.948661844584 gnorm: 0.119760251336 xtb: 6.4.1 (79825abcba525fcdf90b791dcacef51065a7a4e7)
C         1.21675218879864   -0.04304997527799    0.22899812469221
C         2.71600715130834   -0.01286833400314    0.02737553263405
C         3.47008296484498   -1.20604621975710   -0.08134843385096
C         2.71214167958686   -2.50520753156302   -0.30030167194179
O         2.96854129129845   -3.50326576110055    0.68724691996339
C         4.88737850697976   -1.14620280829306   -0.07278899045386
C         5.50285883577533    0.11142660160999   -0.13698244508698
O         6.77589743736777    0.27258279912978   -0.62873518361562
C         7.64741382613040   -0.85266350593894   -0.60092029829238
C         8.15698862122078   -1.03578823885492    0.81085195433630
O         8.30319892410876   -2.14543650044176    1.31910338175440
C         4.76251665278740    1.29365419889740   -0.06084242372898
C         5.35967986096742    2.60606094852691   -0.09936261975664
C         5.73940703665914    3.73814948134711   -0.11179377739491
C         3.36000337368087    1.24945741070217    0.03070609652258
O         2.58005925998249    2.37319866771375    0.19972031873876
H         1.06966960849090   -0.73618867219272    1.05692244182578
H         0.84446865163590   -0.40473223450673   -0.73961561700632
H         0.95230627850440    0.97846127691043    0.52648754737837
H         2.90431175624515   -2.84244124458119   -1.31166339491308
H         1.63857559785624   -2.29371767104580   -0.20611550374132
H         3.10688853995625   -3.03021372340453    1.52550241591304
H         5.36461594527960   -2.11858978669532   -0.06620719404978
H         8.50996021961441   -0.66816292963609   -1.24504454223539
H         7.20614343731783   -1.79593506130786   -0.94104909447305
H         8.49827527766982   -0.11821103061217    1.31933568217072
H         6.19239234049444    4.69575439963470   -0.25035567445156
H         3.17007962961416    3.06715229552617    0.53871882911691
