28
 energy: -47.952567146101 gnorm: 0.117345987256 xtb: 6.4.1 (79825abcba525fcdf90b791dcacef51065a7a4e7)
C         1.16189173645116    0.12956099622402   -0.67514707324044
C         2.61603453319256   -0.07986745295219   -0.31329560026492
C         3.33216890518082   -1.29944584210467   -0.25080712915098
C         2.72979217179312   -2.68496360759937   -0.41729561115321
O         2.36909541797771   -3.22822415468750    0.85230237403277
C         4.72507961031366   -1.21357692746161    0.00376594647851
C         5.36121115855205   -0.04929484856124    0.45581956729929
O         6.69875645057314   -0.11582743141894    0.76398406742250
C         7.47255423614097   -1.17798977774045    0.21667988566969
C         8.85313590831991   -0.58319278468118    0.05385231287546
O         9.90032675789973   -1.19861961576121   -0.13497928191674
C         4.63424359042505    1.14312444906011    0.42088628295144
C         5.26949567763578    2.41935492615504    0.64040795781694
C         5.47078161456695    3.57974241516650    0.83778216352687
C         3.34514750712399    1.12294554419815   -0.14054234615597
O         2.67214700502553    2.31321881797548   -0.31372696292985
H         0.51210741493671   -0.72534724844981   -0.48955226302966
H         1.00138931942710    0.45510009284477   -1.71239580565503
H         0.86292732495191    0.93342153593413    0.00774775563755
H         3.46810599958120   -3.38516784707925   -0.78893409585469
H         1.80771017337831   -2.65341484577101   -1.01304101730558
H         1.62033424671221   -2.72921606346908    1.22100021926271
H         5.30890751934075   -2.12597040263880    0.00806219654832
H         7.19666336829410   -1.62223248433186   -0.74220250012052
H         7.41481792924370   -2.01092357896658    0.92594442318588
H         8.81307678509714    0.51868431281618    0.08909923793296
H         5.90175987681800    4.55662035564395    0.80077536032526
H         3.18010745076494    3.10182817697149   -0.05939032579947
