28
 energy: -47.951657991962 gnorm: 0.113367824830 xtb: 6.4.1 (79825abcba525fcdf90b791dcacef51065a7a4e7)
C         1.30965646533084   -0.02492247728402   -0.65717416496830
C         2.78115234421577   -0.03728121837747   -0.30521510152927
C         3.55224916294395   -1.22423850878820   -0.27939293495976
C         2.95418281891320   -2.46465197262573   -0.92276429295416
O         3.72119106218796   -3.63167121761174   -1.21751442385997
C         4.88074179312432   -1.19356682251410    0.21714279043660
C         5.33420834681806   -0.00121917573396    0.79786969813147
O         6.48108076935123    0.17096477998102    1.53506417102429
C         7.49736516735431   -0.78456116573450    1.25111008150695
C         7.67251003498217   -0.83307679784792   -0.24998037009751
O         8.43072899694235   -1.57239545422491   -0.87410228221061
C         4.65050761799532    1.20691324365787    0.64123213930973
C         5.15429824719041    2.47159059969170    1.11797670077959
C         5.64823762769701    3.50437092369439    1.45762417127394
C         3.34566250435171    1.19196287021444    0.11727249210628
O         2.58608189032073    2.33257094046785   -0.03011667196342
H         1.06617051307369   -0.69564922122408   -1.48080844886448
H         1.07643096481164    1.00463050604707   -0.96253982828628
H         0.85053548979316   -0.29586069727196    0.30080143293505
H         2.40466537583022   -2.14940107300057   -1.80148830973676
H         2.29415993590197   -2.96600185690533   -0.20223586548149
H         4.22535570098833   -3.58661651293115   -2.04780266076985
H         5.42935726547770   -2.12678471284814    0.17892289104903
H         7.28734031821413   -1.76149186932008    1.69203949602918
H         8.44154767935123   -0.31893515782217    1.55422753318436
H         7.17965311958528   -0.01535745106186   -0.80261709334396
H         5.96065568827585    4.45542514864420    1.83084405726787
H         3.12974990316932    3.13754666375075   -0.06259493095789
