28
 energy: -47.957084808639 gnorm: 0.113885748529 xtb: 6.4.1 (79825abcba525fcdf90b791dcacef51065a7a4e7)
C         1.18807169316972    0.03110578992070    0.49310778796366
C         2.67926162611638    0.01978917095083    0.23707544041583
C         3.44957305306803   -1.15927962226517    0.09375134188489
C         2.82427105271774   -2.52686626474794    0.31497479886428
O         3.45836879535936   -3.61049659799795   -0.36383192391225
C         4.84801263692720   -1.07302724424872   -0.12830365053244
C         5.46980455870625    0.16632866143585   -0.33309702360080
O         6.78795069605070    0.27807960976589   -0.70514788517845
C         7.73719274600473   -0.75230548466588   -0.45268043039884
C         7.66073997942892   -1.21498431848547    0.98481228338194
O         8.06629634054746   -2.27423629532025    1.45865351960941
C         4.73515119909982    1.33404925978096   -0.11337217121572
C         5.32358888192190    2.65037464434579   -0.15245913461739
C         5.93943817773526    3.64348232920263   -0.39830157374675
C         3.34296134911371    1.26074293025982    0.07050720285707
O         2.62371878203304    2.42538004837982    0.23170142164483
H         0.83392011616274   -0.56013845399370    1.33722869785856
H         0.69631540865565   -0.36907342617890   -0.40447453108172
H         0.91531887310172    1.08941552230892    0.57972904439926
H         1.76014771947671   -2.43227710911606    0.13552320363964
H         2.86894777950403   -2.77117710890550    1.38476885838473
H         3.59475347807829   -3.51674532779863   -1.32205965480582
H         5.36058760193924   -2.01737458913231   -0.26545442125823
H         8.63049017065442   -0.13634659325449   -0.57732850474723
H         7.71778584863574   -1.63526924855566   -1.10088313337521
H         7.09668543318668   -0.42107729853982    1.50301526385847
H         6.51765851114562    4.51868532814253   -0.19561156958120
H         3.23095689058744    3.14998388649309    0.00625337102515
