28
 energy: -47.954500297386 gnorm: 0.114356724507 xtb: 6.4.1 (79825abcba525fcdf90b791dcacef51065a7a4e7)
C         1.12178718965782    0.08596958323183    0.47206531352799
C         2.58530669190916   -0.02074915271676    0.10321600769667
C         3.29255797834092   -1.21851635616923   -0.15998361082526
C         2.53957297839509   -2.52961596522906   -0.00420479913083
O         3.35402693298246   -3.61126242897279   -0.45566786424386
C         4.68659686243798   -1.27986648489884   -0.41546923451798
C         5.36817296552960   -0.05680817607520   -0.47989723158301
O         6.69571881409720    0.10521311648866   -0.79579354379123
C         7.70346948124057   -0.72042865070298   -0.22199219050521
C         7.68250517118877   -0.85735760222236    1.28370133378091
O         8.68872365085957   -1.04886588042907    1.96330796997513
C         4.68692986767148    1.14474965632157   -0.27077386896880
C         5.48616065949637    2.34546218006777   -0.27510708096100
C         6.26368825118894    3.23760839380976   -0.11542709428553
C         3.33870884615615    1.17925592184284    0.12733087557854
O         2.73457694848491    2.40242222432274    0.32370269480945
H         0.76905968032981    1.11310999116707    0.38207034969167
H         1.10473291202968   -0.28029713759686    1.50800909012853
H         0.48766079623458   -0.58973536335796   -0.11378737191886
H         1.50682554542491   -2.50119103068433   -0.32998572315673
H         2.61841363895920   -2.65748299576218    1.08371859327197
H         3.46244817553563   -3.54967971695011   -1.42005516811037
H         5.24551059886683   -2.16172508341507   -0.70404535700430
H         8.56372278164841   -0.11298304169745   -0.51164176870974
H         7.72497040285892   -1.72063589614810   -0.66841302014548
H         6.69463704930330   -0.78261928539659    1.76899606172678
H         6.80698351206231    4.15637984795687   -0.06969368185999
H         3.42085364134184    3.08248785685353    0.21810582029307
