28
 energy: -47.946281589400 gnorm: 0.122629509036 xtb: 6.4.1 (79825abcba525fcdf90b791dcacef51065a7a4e7)
C         1.07667974662496    0.17339624441481    0.42886142701774
C         2.55980999660859    0.05780025102428    0.15265451841335
C         3.19809844423008   -1.19181608701961   -0.03488628518150
C         2.56221890002660   -2.56775854739028   -0.14747035209597
O         3.52908665181726   -3.53887801064460   -0.54647780989727
C         4.59185277636686   -1.20725225388342   -0.29868875202792
C         5.39101707896292   -0.05734249881469   -0.35879320114882
O         6.72987636934457   -0.12490930045628   -0.66096843805538
C         7.59725791834775   -1.10151546028682   -0.09494425284561
C         7.93435811780990   -0.98445496100348    1.37439652479688
O         9.07351765620174   -0.71793930754207    1.75162481263563
C         4.73557325140936    1.16484776302040   -0.19083396180930
C         5.52853049012236    2.36892204240154   -0.23468777264503
C         5.76072332560123    3.53857216096600   -0.29774982225284
C         3.35188890747679    1.22852380008203    0.05153144430047
O         2.79199156361540    2.43000556497733    0.42919475806808
H         0.92811473111572    0.66267218063463    1.39118709926205
H         0.55445155190104   -0.79333013801450    0.41043660018457
H         0.57519907568105    0.77702377515317   -0.33668920471864
H         1.73421483741389   -2.49272966192669   -0.84194021400729
H         2.06561449745790   -2.84252211076492    0.79275950075827
H         3.71688480469406   -3.41602792618753   -1.49264385159921
H         4.97822049485409   -2.21920383144261   -0.30174252262384
H         8.53507842745268   -0.99971970104711   -0.64544684129287
H         7.28290514520033   -2.13830879165383   -0.25745671529064
H         7.09454306312148   -1.13977191246128    2.07265688650947
H         6.20015431987406    4.40509194351689   -0.74209895253957
H         3.53842970783411    3.05243801627105    0.42433613008943
