28
 energy: -47.941873422590 gnorm: 0.124268396483 xtb: 6.4.1 (79825abcba525fcdf90b791dcacef51065a7a4e7)
C         1.38317550925208    0.07612283047538   -0.90530184009053
C         2.69302106431508   -0.03362982539005   -0.15591075057304
C         3.42865639963607   -1.22910392216436    0.02795609270257
C         3.01161158256123   -2.64396546538340   -0.33875366038620
O         3.11367429940949   -2.86407037595908   -1.74525650046108
C         4.73036205166963   -1.09567332448835    0.57580626575936
C         5.35718046627220    0.13943700998715    0.79067762995729
O         6.62430823160110    0.38273090414153    1.26355674955845
C         7.65215264163104   -0.60123698641891    1.22069900287111
C         7.63549137466458   -1.43775225063735   -0.03877177659726
O         8.18443144824342   -2.53737912934236   -0.01637193153533
C         4.66518281096490    1.30891416288441    0.46659677764782
C         5.40495740773787    2.54475663398058    0.54357813502744
C         5.77951915884431    3.64147524687039    0.83147308708875
C         3.30114159635711    1.21194980420099    0.13892702011267
O         2.68022741507460    2.35818331390934   -0.30860775038532
H         0.87722098204415    0.89849210966728   -0.40007714208598
H         0.81850447445204   -0.86469560196325   -0.84506098201298
H         1.39903023532014    0.33219603294199   -1.97117798916795
H         1.97785678630264   -2.78770109384605   -0.04858209594783
H         3.65370039532057   -3.35921760323205    0.19254612232868
H         3.94502090259922   -3.32307179870193   -1.95447166806451
H         5.36261426527185   -1.91121421184196    0.90517768393419
H         7.59689708311862   -1.13267447425870    2.17329745171248
H         8.52134087705437    0.06261268891730    1.15758162134656
H         7.12423919703383   -1.10210930780526   -0.95689227020489
H         6.55118059832330    4.32512730761076    1.11176001297112
H         3.19794760618487    3.17367195590166   -0.20109152511698
