28
 energy: -47.957387847506 gnorm: 0.118802587255 xtb: 6.4.1 (79825abcba525fcdf90b791dcacef51065a7a4e7)
C         1.32739530947604    0.00765863660429   -0.89845465789580
C         2.70924772627868   -0.02433690651616   -0.28299692385444
C         3.52798761051991   -1.16419397708200   -0.09721326889357
C         2.89921847325302   -2.53109754430438   -0.31275827791611
O         2.60484038007366   -2.67926845255624   -1.70146276040414
C         4.86187138983980   -1.11608162989680    0.38322447692455
C         5.42088923646004    0.14827015783696    0.61448663853971
O         6.73150561780137    0.31959855042996    0.99045292089648
C         7.47327819022197   -0.81358939949283    1.42880466575503
C         8.23247944559942   -1.44669827215893    0.28465054964324
O         8.71009627321167   -2.56289677351674    0.47700257664096
C         4.64509037645176    1.29626770284556    0.43615062898017
C         5.38185377621758    2.53436776595745    0.36696156893021
C         6.00928889162827    3.54655882883000    0.27883582994720
C         3.31114730139538    1.22778173220321   -0.00348960998987
O         2.50374302904645    2.34428683388857    0.03097412583849
H         1.44566218834192    0.06523537529734   -1.98022684918266
H         0.79561333373215    0.86242844488638   -0.45777544115624
H         0.70258990419569   -0.84664436035635   -0.61262005167621
H         2.01481778674096   -2.70697701628772    0.28758353140020
H         3.72671752323609   -3.24119259672760   -0.18178701292440
H         1.85257620021591   -2.11259299423529   -1.94347101920586
H         5.36555835715076   -2.06473233869768    0.52356906895585
H         6.92126118023730   -1.60409207819435    1.94193770806406
H         8.17041590567796   -0.46354046756274    2.19798158592837
H         8.35052522515270   -0.80987352956438   -0.60837781348526
H         6.59184950903038    4.43423925390953    0.16030795108697
H         3.02386330926669    3.11989000016363    0.30028859963679
