28
 energy: -47.954940988282 gnorm: 0.110614180046 xtb: 6.4.1 (79825abcba525fcdf90b791dcacef51065a7a4e7)
C         1.23328048179510   -0.11033234068184   -0.69252674596804
C         2.69133734701371    0.04433358513988   -0.31906099446921
C         3.51468868827647   -1.10618253782537   -0.36935937568495
C         3.05791109843586   -2.40244796985086   -1.01842470489189
O         4.13384861521010   -3.02496084453996   -1.71981575100652
C         4.85392280033891   -1.09188092394101    0.09821801898212
C         5.32202777109927    0.12429358842794    0.61432446687706
O         6.53487976495011    0.24640041259470    1.24875280817527
C         7.54908802353270   -0.74502417057566    1.12647186937017
C         7.99129052351079   -1.23872403238966   -0.23257905737712
O         8.50010788918306   -2.34952943494519   -0.36760673885888
C         4.54678779633612    1.28632672174208    0.63007020275582
C         5.06813447781943    2.54805665047669    1.09561763077544
C         5.49388418010117    3.61043925500046    1.43628183810397
C         3.17262826582216    1.20043466643186    0.34426234986416
O         2.24105562796903    2.14339257072965    0.72198692680908
H         0.97486207723503    0.32322891202324   -1.65833095727795
H         0.62033204293398    0.53667670670076   -0.04964637677950
H         0.89261842421513   -1.15219978096168   -0.67307354856736
H         2.26708122572527   -2.23919429664059   -1.74053605516219
H         2.68441090328562   -3.10751066413850   -0.26375435978650
H         4.29850973887377   -2.54774804949285   -2.55092653248226
H         5.40919520325099   -2.02017516839413    0.04096694958611
H         7.42500092190043   -1.66694821828029    1.69881898656188
H         8.46545659591822   -0.31019297740469    1.54042700586944
H         7.89742397130694   -0.52727724231858   -1.07044106845100
H         5.79437445834438    4.62427488106082    1.58874554100861
H         2.71128714966199    2.98044719494686    0.87310785708674
