28
 energy: -47.948990388643 gnorm: 0.118028768369 xtb: 6.4.1 (79825abcba525fcdf90b791dcacef51065a7a4e7)
C         1.39207988601443    0.09470214207136   -1.07808472408022
C         2.73851505527435    0.03554617789143   -0.39037770072370
C         3.58262994815036   -1.10068708396017   -0.41422581145813
C         2.94484059284863   -2.41989768725596   -0.81813639837144
O         3.79781200841670   -3.51678500395322   -1.14431302559617
C         4.93958391947749   -1.06484966253968   -0.00219090744753
C         5.39780895390124    0.14653904352322    0.53365963919884
O         6.66660401208980    0.37183652199095    1.01096406484083
C         7.70582403318785   -0.60015359464300    0.96912280359537
C         8.06034732542492   -1.06163202094703   -0.42646056158667
O         8.44502969427568   -2.22787602176968   -0.48041087683924
C         4.51923225745629    1.20120731492819    0.79316648929611
C         5.04828340213833    2.41602266132588    1.36310313537622
C         5.20075773294617    3.54081692603489    1.73399553965222
C         3.18694526396170    1.16079237648582    0.34510844360998
O         2.27935485810820    2.15255282500628    0.64902277882058
H         1.07697431715561    1.13197011494261   -1.18906598887676
H         0.68435804320416   -0.43138043454822   -0.42234957678865
H         1.48425678973277   -0.38299120553680   -2.06054557095143
H         2.33190963543735   -2.18345469569820   -1.67948348726123
H         2.40419999791332   -2.62907444814710    0.11465294771491
H         3.79542390570583   -3.71512439831268   -2.09628269378839
H         5.66046988451008   -1.82988503604055   -0.26368591296073
H         7.33540649647416   -1.50863071746617    1.44910504417272
H         8.54156646303933   -0.16118821674236    1.52501161496654
H         7.98319806322423   -0.38343158204354   -1.29310487832460
H         5.57277992646620    4.40271435905525    2.24402944237233
H         2.78814536036221    2.83816280209601    1.11344376121795
