28
 energy: -47.944922978935 gnorm: 0.120174039321 xtb: 6.4.1 (79825abcba525fcdf90b791dcacef51065a7a4e7)
C         1.26099855332754    0.13217282419433   -0.84551520286983
C         2.69003268539739    0.00871387478275   -0.36390604911248
C         3.53984461864524   -1.12031633611308   -0.44896585008161
C         2.95179730758428   -2.30712507628898   -1.19456695718175
O         3.72243660381912   -3.50308682989229   -1.08097217367138
C         4.88035215448189   -1.06250784826176    0.01155437907632
C         5.36342287799467    0.08507832980621    0.65518254681923
O         6.66019157068486    0.31509903496859    1.04748446660983
C         7.59258339230040   -0.76020901918419    1.07667027698435
C         8.14158056413523   -0.99925238455233   -0.31176856124969
O         9.07800422072911   -1.70274211838879   -0.68490279982411
C         4.54357382915244    1.21213969872313    0.75081819440519
C         5.13751997699174    2.37113061710389    1.37087240081212
C         5.39622022866327    3.37951723782100    1.95585301728931
C         3.20268159978761    1.12959315013011    0.33540022893555
O         2.27250881245309    2.14665647255124    0.32958332280659
H         0.72127482636485   -0.73227649067806   -0.45956327317266
H         1.01411412277057    0.09844910458193   -1.91581069799539
H         0.75723034258816    0.95001139196493   -0.31705092250401
H         2.93363821245590   -1.91214352990947   -2.20311456707683
H         1.90906560503571   -2.59636845044587   -1.00697167154728
H         3.24050182368016   -4.22405304970240   -1.52090062905102
H         5.44371369185640   -1.97889972366609   -0.11566606410213
H         7.14946426622106   -1.63207961579326    1.56289027623838
H         8.47307744341291   -0.47151073971051    1.66109470489812
H         7.57016300129659   -0.48718648700062   -1.10439123431364
H         5.67146941902945    4.11996538620591    2.67514203643467
H         2.64645990716298    2.94822130671356    0.73241090155745
