28
 energy: -47.950444886971 gnorm: 0.110191242568 xtb: 6.4.1 (79825abcba525fcdf90b791dcacef51065a7a4e7)
C         1.04688746320075   -0.03895558054293    0.26582547190771
C         2.55219418069218   -0.04684477355376    0.11312485199154
C         3.30425083041309   -1.24492609983412    0.16913048761048
C         2.68393218531826   -2.63136650615510    0.22590561506213
O         2.87290823438801   -3.29104382272109   -1.02558434015400
C         4.68580962422184   -1.25026951520173   -0.15281347511834
C         5.31178621260497   -0.01011080579528   -0.33916871819218
O         6.65634024992741    0.15326026269339   -0.57134044108702
C         7.51161492164550   -0.90264577690562   -0.14700400956400
C         8.26631607308929   -0.60814264461053    1.12970900081988
O         9.27784877966166   -1.19586354369223    1.50707084176982
C         4.64305333178300    1.21145716883222   -0.22901428788044
C         5.48709866912893    2.37724306236251   -0.13398838556274
C         6.27661669030016    3.20281618722727    0.21395131194008
C         3.25793524606697    1.17779602945656    0.01117898367077
O         2.59442266494354    2.38074225709772    0.12228466672525
H         0.71190815872238   -0.29082803036634    1.27174909704464
H         0.65981625243778   -0.86398588790927   -0.34827756090607
H         0.62512803890545    0.87840259010364   -0.16136278019873
H         1.65099930272668   -2.59058910171018    0.54978107609857
H         3.22208353857840   -3.20732049766121    0.99063645056956
H         2.44050634636281   -2.83504050743469   -1.76766253790053
H         5.25917475755489   -2.15944421916632   -0.01868995425613
H         8.23270287979586   -1.01822260164913   -0.95915974643997
H         7.04190363940687   -1.86208311228402    0.09593568146542
H         7.82737847809301    0.29766849802079    1.58117348281111
H         7.03336173350733    3.90900705654654    0.47859006001256
H         3.17010503727986    3.16089665101264    0.18984639869580
