28
 energy: -47.952959711921 gnorm: 0.117826396434 xtb: 6.4.1 (79825abcba525fcdf90b791dcacef51065a7a4e7)
C         1.41136050898174   -0.16199220326052   -0.57764975471376
C         2.89308273167784   -0.03685779460376   -0.29806315689523
C         3.68347485186531   -1.20482655915786   -0.17455627708119
C         2.93455400303049   -2.50892564727279   -0.39518889972829
O         2.47583581858670   -2.59419781202270   -1.74404749054348
C         5.05334412613106   -1.15968584544109    0.19123277240261
C         5.56047976868987    0.12240729023705    0.44346122574164
O         6.83704386435264    0.47211751481368    0.81292871331872
C         7.59202367846978   -0.60578946361346    1.35571390105813
C         8.11065132072090   -1.63843120863899    0.38053267339346
O         8.16284548577712   -2.84907894515871    0.58698861846868
C         4.78562533484980    1.27224584720484    0.27305627003703
C         5.29795570108107    2.58496361563875    0.58093427731930
C         5.40734471322783    3.77096333367610    0.49485033392822
C         3.42031805406868    1.25739422922462   -0.06323743312531
O         2.59988904497383    2.36483874387031   -0.07489604906115
H         0.85193101677859   -0.69887075426311    0.18807426165777
H         1.25900588529269   -0.74643293644612   -1.49571225839100
H         0.82778132519709    0.76089837932201   -0.67575750723396
H         2.05579029659002   -2.46275958457452    0.23659547404196
H         3.57952874500175   -3.34016563034604   -0.08024319299976
H         3.28344983606396   -2.51671098724857   -2.28009399907934
H         5.64451956869424   -2.06208051862241    0.28885844437116
H         6.97693185369636   -1.06302037334867    2.13386859515361
H         8.38504800492446    0.04222881274461    1.74475518029936
H         8.32248074121477   -1.18347538911393   -0.60187442909333
H         5.52003821252155    4.80431404044639    0.74160683315709
H         3.10081683963447    3.13063430959745    0.25258548775455
