28
 energy: -47.949451133992 gnorm: 0.120488990168 xtb: 6.4.1 (79825abcba525fcdf90b791dcacef51065a7a4e7)
C         1.22653042565979   -0.00964463586320   -0.71621764528108
C         2.65965343577447   -0.01074454027350   -0.23094939481305
C         3.54236731788227   -1.08933096572689   -0.47912722455683
C         3.01085497113461   -2.33635196790250   -1.16663641276260
O         4.05346970702463   -3.21973131975475   -1.57859350975960
C         4.89998548285996   -1.04488385692174   -0.07013023786287
C         5.40191507771382    0.15110922455821    0.46112846069201
O         6.67054647395164    0.42185232463999    0.91466116221805
C         7.62158781764543   -0.62975342132558    1.04170227549420
C         8.26250714447223   -1.18077822627007   -0.21205053392760
O         8.85888070877489   -2.24785873836043   -0.34125572212565
C         4.52893174864365    1.22523580707576    0.65012093318159
C         4.86346876004459    2.45051445997127    1.33369714061848
C         5.21932565634240    3.54302725360154    1.65889461453893
C         3.13518350779648    1.09614786860178    0.51528708361927
O         2.29067052076300    2.15349086418870    0.77700574935311
H         0.75418268903624   -0.92671284865807   -0.36492471982344
H         1.07809335603185    0.08905841428742   -1.80058188575317
H         0.66033289408993    0.79734785910139   -0.23652993504691
H         2.43928866636523   -1.99822917824990   -2.02249469116739
H         2.29066614202260   -2.78786144639007   -0.47121541038409
H         3.57159748156075   -3.92677886575607   -2.04062532149005
H         5.39698550433844   -1.97559608668484   -0.31528540079793
H         7.05783907615023   -1.43540512891727    1.51713415031061
H         8.25045926259754   -0.27677172576593    1.86637979444178
H         8.07321760528912   -0.57700385387073   -1.11571318779701
H         5.55233227434674    4.44438290064903    2.12587091576287
H         2.82926425686101    2.96127831902973    0.82185974245763
