28
 energy: -47.946633568488 gnorm: 0.128682945223 xtb: 6.4.1 (79825abcba525fcdf90b791dcacef51065a7a4e7)
C         1.27430226140979   -0.09084694153366   -0.62371707259991
C         2.71967433552157   -0.03595997988380   -0.17962807563823
C         3.58685430793364   -1.14302820902593   -0.34248855673575
C         3.19593486080354   -2.41174468411810   -1.08260754844623
O         4.41772538184132   -2.92771029290458   -1.60997898567574
C         4.92152943000066   -0.99611250654622    0.11515678333204
C         5.34698522544978    0.18355888864822    0.74120099108937
O         6.68066679086733    0.28960664219925    1.05499504790879
C         7.59350891114912   -0.80177262961781    1.10086740964033
C         7.77982450124118   -1.15609144507966   -0.35722953897298
O         8.14076207077203   -2.28890037386329   -0.66945419014079
C         4.51720873146396    1.30740783719388    0.74188348298839
C         4.99985003983694    2.56256563619238    1.26354953182096
C         5.24853200141962    3.55283181437188    1.88282483324463
C         3.18790100770999    1.21542984517762    0.29259624742260
O         2.26918611424092    2.24076410693131    0.35836584697155
H         0.88952746264934   -1.08726879090906   -0.40778869805848
H         1.25286789039156    0.01220127025675   -1.71758329007970
H         0.63362013585028    0.69202323478335   -0.20115639106339
H         2.60144521445081   -2.17694863186852   -1.95722822350353
H         2.62970284394188   -3.17571210589449   -0.53317310744691
H         4.33892220807065   -3.86141917160306   -1.86991793613278
H         5.58544746096496   -1.85068581969696    0.16261877017351
H         7.35263030362613   -1.72475840569661    1.63284253612428
H         8.51274096298834   -0.39350784828627    1.53503406572004
H         7.31610824426261   -0.48772275906171   -1.10236761293447
H         5.60059587348506    4.44258885606898    2.35799396844738
H         2.70212223261942    3.10979127587993    0.31393885319358
