28
 energy: -47.949330191293 gnorm: 0.117762990059 xtb: 6.4.1 (79825abcba525fcdf90b791dcacef51065a7a4e7)
C         0.94370409390274    0.23806581882873    0.00163296905403
C         2.43951053122123    0.01863912431565   -0.05954758916982
C         3.05935534774914   -1.25394123153687   -0.08090937406473
C         2.30961888826045   -2.57563244133040   -0.11645086870843
O         3.10631937105244   -3.75625159857857   -0.20875445542079
C         4.47788032572967   -1.25865973728768   -0.09298271178475
C         5.23430882599966   -0.09770823396141    0.11814779438796
O         6.59611499120712   -0.00223860300566    0.27559259976475
C         7.52715465763909   -1.06336711454384    0.09211196725971
C         8.90333209756649   -0.53624913121880    0.43061501623047
O         9.93436874901647   -1.03741984917827    0.87424500081065
C         4.62416352729785    1.15866253526975    0.08949205306987
C         5.38107002728692    2.36977308515357    0.29148948085069
C         5.99505728922094    3.34323286616415    0.60987196238188
C         3.23488599662309    1.18962339720949   -0.12574584003201
O         2.52880775058219    2.36489054690542   -0.26671988524661
H         0.36002702001819   -0.60100557449774    0.37953966902065
H         0.72357928136299    0.59001500699841   -1.01586322462925
H         0.73286637390412    1.10906110059166    0.63316404866240
H         1.58331884542809   -2.62731977464102   -0.91852637095599
H         1.70089786458401   -2.61934210519650    0.79661610984016
H         3.65406705065161   -3.58706588909953   -0.99420919222746
H         4.97537042927291   -2.21727101460857   -0.17606907879838
H         7.71675988776786   -1.45936339074833   -0.90796782301638
H         7.26187128623135   -1.87596102013214    0.77730117981429
H         8.89780261933684    0.53302598686750    0.15932114863243
H         6.73925332760939    4.10817559844231    0.65923934876856
H         3.16777432278168    3.08793933950278   -0.15036771945179
