28
 energy: -47.945779807869 gnorm: 0.131114745639 xtb: 6.4.1 (79825abcba525fcdf90b791dcacef51065a7a4e7)
C         1.06281097699605   -0.12952006897022   -0.08068813244272
C         2.57274986995408   -0.08885484117984    0.00739660109728
C         3.32623135046014   -1.28732289489330    0.01543968504911
C         2.75379485705483   -2.69092134898473   -0.09620027441770
O         2.12851117966317   -2.89815807603221   -1.36237027863102
C         4.72741627768388   -1.29915593446515    0.23662274901475
C         5.37121797770666   -0.05876918422284    0.34399440563519
O         6.71281730113206    0.07847363177027    0.60799257322952
C         7.49197185312590   -1.11063272738067    0.68173527455566
C         8.88547033927256   -0.64143149031950    0.32915307904125
O         9.92327608805018   -1.27483943081090    0.51017749806532
C         4.66495056399143    1.13694816934059    0.19229627312958
C         5.31747199895753    2.41440994327653    0.34331417132760
C         5.65750395170936    3.54129976736248    0.54448406029465
C         3.28317239111937    1.13496457509105   -0.06859289093766
O         2.60120971032278    2.26195250209479   -0.47417662903786
H         0.68031520553948   -0.27635799712979   -1.09047465120917
H         0.85013264218683    0.88010016812305    0.29754007215306
H         0.54508992359475   -0.78221375183430    0.63196374174405
H         2.14056141389243   -2.87848619337357    0.77688198184876
H         3.66665351605210   -3.29995290713902   -0.05246512984786
H         1.89279390064989   -2.00986666568700   -1.68012207382464
H         5.38316541519610   -2.14261910978244    0.41522364700408
H         7.24140186992096   -1.84607496512510   -0.08589887298329
H         7.44341628055534   -1.61168191271555    1.65475143726187
H         8.78548526101994    0.30855205375360   -0.22267521642178
H         5.92254765029817    4.57407818158282    0.47723184563027
H         3.20428721045442    2.96762383698258   -0.18618155354856
