28
 energy: -47.952124973009 gnorm: 0.126947877363 xtb: 6.4.1 (79825abcba525fcdf90b791dcacef51065a7a4e7)
C         1.28091579565183    0.00038522683495   -0.50648375016888
C         2.77991385907666   -0.00675165394597   -0.30085806177251
C         3.50862968851711   -1.20573370389617   -0.11233751180078
C         3.01997983752770   -2.58428211529658   -0.52593300978924
O         3.34270638697798   -2.80250648937383   -1.89900945143872
C         4.84202747426124   -1.03259603955688    0.33982933680401
C         5.49746598528766    0.18782390208331    0.55323999103487
O         6.73520784665931    0.35369006049365    1.12674052636225
C         7.37718791342245   -0.89118347303488    1.38099476433569
C         7.87183217624341   -1.60430919369996    0.14281836577423
O         8.49546790765668   -2.65963157304489    0.23441193121660
C         4.75114124458331    1.34177485440193    0.30231659536025
C         5.29779351489045    2.65458355389394    0.54357128567187
C         5.58061811423796    3.76346949408544    0.88467822734922
C         3.41709850606258    1.24775353946790   -0.13227283483781
O         2.56339873252301    2.32676765587020   -0.21350267946445
H         0.89766242522322   -0.84446927326445   -1.07821002721449
H         1.00214492065542    0.95383645131261   -0.97641909739835
H         0.82902294913183    0.00639075105299    0.49235238359368
H         1.96729530800303   -2.70141925341623   -0.29868287555688
H         3.63804073982092   -3.25571843281882    0.08506381912137
H         3.17450636312929   -2.08185801212439   -2.52985411667297
H         5.38022041685705   -1.97019388121427    0.40760827290733
H         6.81783540099172   -1.53284223060203    2.06533502471142
H         8.23525659552621   -0.47437189563115    1.91965479825025
H         7.54653107392100   -1.11201530097517   -0.78927933986538
H         5.94868196062537    4.63576474964207    1.37968556806692
H         2.90493176601152    3.20398091633357    0.02829835904537
