28
 energy: -47.950571005984 gnorm: 0.109178054558 xtb: 6.4.1 (79825abcba525fcdf90b791dcacef51065a7a4e7)
C         1.09438798488292    0.18075275848598   -0.51336378432848
C         2.52781092411878   -0.08679423217359   -0.10957508594686
C         3.34654167818030   -1.22100775137190   -0.32720857771868
C         2.70413553643073   -2.47832171902747   -0.88997989968694
O         2.20646913842674   -3.50213917601188   -0.02902741735375
C         4.74189264207285   -1.25119088583407   -0.07330738678201
C         5.35655592484980   -0.06283126598607    0.34449524167072
O         6.70580984106759    0.11726312456054    0.53290766237724
C         7.55659000116624   -0.95508978390864    0.14210580543437
C         9.00216439053277   -0.53782172099319   -0.00790779482536
O         9.84839746231201   -1.06614043362484   -0.72608963536482
C         4.60683737426208    1.10143952652054    0.52878192506549
C         5.25660460807231    2.31334272987998    0.96420398126981
C         5.81092339572193    3.34719336097247    1.18748692992846
C         3.20518016646288    1.02890092392134    0.44233409709100
O         2.53496871662662    2.21279504684456    0.66343220919720
H         0.65630146792611    0.97611101148364    0.08914651285805
H         0.42772595397465   -0.68984464439330   -0.44095138192716
H         1.02315423347189    0.59605688602245   -1.52547299878760
H         3.42623372566939   -2.92612297460952   -1.56195958048067
H         1.91048699898577   -2.17268873352565   -1.58485658191950
H         1.26751819531159   -3.39187357036076    0.19857550222569
H         5.27970870995143   -2.15829235472093   -0.32080714599951
H         7.18604017044585   -1.49241143640531   -0.73362306201032
H         7.65533887836039   -1.68842424999074    0.94996569609134
H         9.31624243487623    0.28347643631403    0.65827876688011
H         6.50544045770968    4.03632253424579    1.61661314253647
H         3.09748384257128    2.75942974438844    1.23735111011793
