28
 energy: -47.944144978430 gnorm: 0.123550772994 xtb: 6.4.1 (79825abcba525fcdf90b791dcacef51065a7a4e7)
C         1.43251591839904   -0.03621716655553   -1.09953217833246
C         2.67387657881089   -0.03794442560387   -0.23446064068032
C         3.23005657845671   -1.24223182979830    0.25998891057137
C         2.55913561148547   -2.58947715946870    0.04778450620209
O         2.42607512081661   -3.01610923136502   -1.30772026820753
C         4.52022742341015   -1.24856968589715    0.84973477338302
C         5.24579885242605   -0.05184429519548    0.92695537808761
O         6.45261028222786   -0.03123797833293    1.58391878038273
C         7.53423235776832   -0.90823649572953    1.28818069714049
C         8.12679355206136   -0.58808164356255   -0.06558225606974
O         8.90801600787340   -1.34326571407796   -0.64039068015894
C         4.71056416988525    1.15892556502362    0.48071985558406
C         5.53140773505939    2.34479761542784    0.46016445803141
C         6.28755324638917    3.25342497005764    0.62931534214816
C         3.43847729320469    1.14955353427969   -0.11851728094442
O         3.00953669318908    2.28315058313165   -0.77474951577562
H         0.54544656598290   -0.51076426332477   -0.68066916857749
H         1.60675950523157   -0.35215694579842   -2.13753164325413
H         1.00782204455981    0.97353587815230   -1.14369927830743
H         1.54395769295414   -2.65190967041895    0.42064429898018
H         3.08331377561471   -3.38123269656316    0.59960290811294
H         3.18278137693420   -2.52546821392405   -1.67139251562214
H         5.00486911512930   -2.20179709384936    1.02240577212940
H         7.32437434386996   -1.97605301475928    1.38118757006431
H         8.23659931691816   -0.72541773661288    2.10880627491819
H         7.63981917759398    0.33403380031190   -0.42549791748915
H         6.58158419571358    4.23980038395336    0.91569205372859
H         3.74864036605710    2.91003843754174   -0.70158500967262
