28
 energy: -47.953736408452 gnorm: 0.123929056668 xtb: 6.4.1 (79825abcba525fcdf90b791dcacef51065a7a4e7)
C         1.05347981223422    0.19271752606615   -0.05378284013076
C         2.56229823260246    0.08643166716051   -0.01507449237996
C         3.32411158894406   -1.08509116659869    0.21141913715671
C         2.70921678840864   -2.43376114169337    0.54791477284107
O         3.45579916768057   -3.55726664469022    0.08158511563469
C         4.73113192103320   -0.98972672987143    0.36497878984660
C         5.44344190721242    0.16437363096857    0.01109262464692
O         6.81466735501058    0.24597782604495   -0.02764851740726
C         7.65219675128999   -0.82686762221686   -0.44483058720956
C         8.17552918280970   -1.52862734406096    0.78803537888092
O         8.89088798985714   -2.51708770828633    0.63895782878897
C         4.68920915951236    1.33262588729893   -0.12264436903293
C         5.31334688879784    2.63254509117816   -0.08856563147891
C         5.66315801434116    3.77078273577537    0.00098302714505
C         3.28337702061242    1.30117087619413   -0.12760255131696
O         2.52895135941752    2.43646694820876   -0.33160697505552
H         0.71323156656991   -0.05553344756736   -1.05883796123999
H         0.88870069061311    1.24019092503077    0.23478082671208
H         0.74461461324343   -0.42999341494602    0.79400853070040
H         1.76031341728886   -2.52338804287086    0.03307706793373
H         2.57785134575730   -2.55237654224623    1.63180435843043
H         3.30536186199670   -3.51715022173163   -0.87828454142643
H         5.28645871915090   -1.90758929867321    0.51489806314110
H         8.52320819255170   -0.40934498617891   -0.95467046570239
H         7.13571268220282   -1.56186525936977   -1.07188007495972
H         7.79246774948067   -1.17275688551623    1.75942632536998
H         6.14842633379493    4.71597308334483    0.11293004947255
H         3.12576071561595    3.20282649281307   -0.36518233640126
