28
 energy: -47.952628535931 gnorm: 0.115297574475 xtb: 6.4.1 (79825abcba525fcdf90b791dcacef51065a7a4e7)
C         1.30675015045412    0.04866576137573   -0.84222668840418
C         2.68834034863371   -0.01402916213008   -0.22854442628612
C         3.52181519806131   -1.15338394199317   -0.33491673451356
C         3.03958282958243   -2.45193989207177   -0.96056841453568
O         4.08566767381173   -2.98135298979819   -1.77453493082351
C         4.90140245487820   -1.04677522210631   -0.02225917684828
C         5.29567453268229    0.13336152499562    0.62302786836762
O         6.63314685481413    0.34629694697688    0.85593484474431
C         7.46556325390651   -0.78935577999371    1.06538544915162
C         8.02987107193105   -1.33000462156017   -0.22904784380489
O         8.65772982196761   -2.37514504804776   -0.38554419947745
C         4.45823461386662    1.22301337883001    0.87386482608349
C         4.97049902614634    2.51314844903117    1.26582895147535
C         5.44880262044119    3.59955147921013    1.39592833820269
C         3.10473709645332    1.12439497550455    0.50549423777700
O         2.19486628136050    2.13184563744439    0.74392937481316
H         1.37052712374726   -0.50728183216962   -1.77731384139845
H         0.89996441130346    1.06774855895344   -0.90237049632242
H         0.65382170204349   -0.55754094961036   -0.20338813403340
H         2.15994645964423   -2.26294483255287   -1.56391671912027
H         2.77601762838542   -3.14162131465256   -0.14753947891254
H         4.69881335668500   -2.23030637746379   -1.84917960226399
H         5.58150539513389   -1.88546138323958   -0.10828735878603
H         6.90724165392806   -1.61376130078576    1.51433457047658
H         8.28242484297167   -0.51423523735651    1.74156162018434
H         7.90764031850021   -0.58243258479805   -1.03103033091883
H         5.65042655073940    4.64701878899074    1.45561332934736
H         2.69800491764803    2.83748977397502    1.18385383484453
