28
 energy: -47.951009003879 gnorm: 0.115315674696 xtb: 6.4.1 (79825abcba525fcdf90b791dcacef51065a7a4e7)
C         1.12445631388033    0.05595487766029   -0.11317973261987
C         2.61694142403809   -0.06874598598400    0.10191542517979
C         3.39531972716574   -1.22865185112305   -0.12801998802815
C         2.80756480427147   -2.62919777639102   -0.18503652460396
O         2.63473455711515   -3.21029655645401    1.10708077807631
C         4.81061685387739   -1.15445158686197   -0.06629872922014
C         5.43314622520719    0.09943931437429   -0.13546053746186
O         6.77113758407582    0.41028961585868   -0.17509093307118
C         7.69367572087154   -0.63463147314942   -0.46415326834319
C         8.37593939769456   -1.23194047822542    0.74582204446962
O         8.88141991458537   -2.35232918934044    0.73049844430483
C         4.66956473390423    1.26805061485817   -0.08201061911906
C         5.23907773971187    2.58893850067432   -0.18882507933948
C         5.93906291670102    3.53392026121451   -0.39619418941578
C         3.30132845223342    1.16592913537830    0.22601321317222
O         2.55895996512448    2.31512569364425    0.39307413424832
H         0.55020406707025   -0.53933163609507    0.59632821567990
H         0.90900551923481   -0.18077476613022   -1.16444644290060
H         0.84399474830175    1.09831819459799    0.07848887874486
H         3.44061720715573   -3.25726254594167   -0.80008753820649
H         1.86182751855956   -2.58499915315877   -0.74160691112897
H         1.98875636176262   -2.70527660438899    1.62982114044717
H         5.45520697994646   -2.02478337048921   -0.08531150254565
H         8.47175832643904   -0.07909696095600   -0.99225520141918
H         7.28749636723707   -1.38607478634528   -1.15009762509577
H         8.59054805300416   -0.50583817121349    1.54813045176629
H         6.40541333941445    4.45027254249778   -0.10599071573969
H         3.15261429652756    3.08329182486318    0.43901968302641
