28
 energy: -47.952996237184 gnorm: 0.112461781462 xtb: 6.4.1 (79825abcba525fcdf90b791dcacef51065a7a4e7)
C         1.19094505196317    0.08200238036897   -0.61917401160194
C         2.68220663652081    0.06634429330073   -0.36378854057206
C         3.40390165625301   -1.10591925697199   -0.03351719499084
C         2.80242216185622   -2.47984821113223   -0.28004767855076
O         2.64238487183952   -2.73269435891861   -1.67560137093671
C         4.75684863469134   -1.13393789331382    0.39207719293190
C         5.47112829286734    0.07102975097644    0.44133280002133
O         6.78826175748789    0.25992792204275    0.78469306148324
C         7.41186239608180   -0.79910092979849    1.50307587469384
C         8.15923299861617   -1.68179976428544    0.52912413915499
O         9.17282981926356   -2.36159994935614    0.67578505322811
C         4.76513654004666    1.23121750448099    0.11406231364546
C         5.36986497071352    2.48647503693448    0.48706532520195
C         5.74595673816288    3.50054239858171    0.99322151119158
C         3.43585904381987    1.26625944917817   -0.34329026898146
O         2.81525463609646    2.41807805111863   -0.77669206616212
H         0.64892249488346    0.20915198308842    0.31761717849813
H         0.99687904551422   -0.84805249136585   -1.17140402289907
H         0.85928817960802    0.98727622058231   -1.14109337242267
H         1.83329116072268   -2.57774975328252    0.19398696226383
H         3.41960241287979   -3.32558554590228    0.05155452842911
H         2.20261718360846   -2.00231882090134   -2.14330471893477
H         5.15710279038494   -2.13516995821079    0.49535493222164
H         6.71586452524139   -1.42675165614978    2.06393620855060
H         8.12307196475323   -0.25116155367834    2.13085909638187
H         7.73973832780690   -1.67032083446987   -0.49110753646885
H         6.13415289218710    4.37935517022571    1.46054808400965
H         3.47163548577943    3.13089385911773   -0.85201448478481
