28
 energy: -47.952902582657 gnorm: 0.115419730917 xtb: 6.4.1 (79825abcba525fcdf90b791dcacef51065a7a4e7)
C         1.33998598826632    0.03755993840300   -0.90123602805261
C         2.75304180521272   -0.04152940589634   -0.36612279837873
C         3.50137315949320   -1.22353071682827   -0.14933308267660
C         3.11067629525694   -2.59262574767193   -0.68147063927712
O         3.18801983996785   -2.72104743367115   -2.10085045397282
C         4.77489167632344   -1.13803886662855    0.46971689880735
C         5.35361172665608    0.05087531270384    0.93461984308188
O         6.56921542702745    0.12574288772488    1.57111166281171
C         7.44114031443417   -0.99283713163399    1.44855775183283
C         7.81914948537700   -1.10313362707798   -0.01132093588586
O         8.43533361752136   -1.96091723844438   -0.64024113874272
C         4.63799253869959    1.22217231943100    0.67477672069175
C         5.24690181946430    2.50483362299386    0.92876225089947
C         5.73155842238919    3.51803454783786    1.33435265028568
C         3.32537280491422    1.13517480182658    0.17794792684651
O         2.59724161999177    2.24040640892977   -0.20670922452311
H         0.72574891488606    0.34862300791430   -0.05655514464947
H         1.05969083291452   -0.95265579655972   -1.28663074668287
H         1.16202414943350    0.76396019654064   -1.70285256616336
H         2.09225067447040   -2.93871362846570   -0.55285929123934
H         3.83905379939661   -3.24019484266595   -0.17524577973724
H         3.93270230911896   -2.17091993630852   -2.39816884356708
H         5.34197734746228   -2.04352142231941    0.64818403155296
H         7.09043408880816   -1.96734462081337    1.79534742831636
H         8.29961888305768   -0.65895621876836    2.04160620461321
H         7.51820022884347   -0.21174302964213   -0.58737003496856
H         6.19869621685991    4.42943286539557    1.63855266921787
H         3.03679357746848    3.08899129818522   -0.02975323229754
