28
 energy: -47.953851592663 gnorm: 0.112326221082 xtb: 6.4.1 (79825abcba525fcdf90b791dcacef51065a7a4e7)
C         1.56553845970658   -0.06849299203937   -1.12415992905093
C         2.95657306040803   -0.11502501965782   -0.53070769402168
C         3.42655651651340   -1.26594987408620    0.14650145955011
C         2.65894067808680   -2.56561063681681   -0.03205792414783
O         2.02766068175496   -2.83557879983627   -1.28334364887410
C         4.63996559861788   -1.20934175088377    0.87917810825124
C         5.37434934068840   -0.01802098700711    0.95666312008835
O         6.55452420245676    0.12957294674807    1.64501091126811
C         7.51930599200498   -0.88918660592233    1.40455549643849
C         8.03863942420734   -0.82933512965806   -0.01425126298472
O         8.70038179925901   -1.70982028160670   -0.56001600795093
C         4.86143658943821    1.14421308328837    0.37554486608346
C         5.46241912330897    2.44927832694341    0.50252475310306
C         5.96669965390030    3.53138007318870    0.52951863918323
C         3.61510165685655    1.11343400347213   -0.27490104636760
O         2.91273954262417    2.26474420193418   -0.55923419704365
H         1.48953511939537   -0.95852967924797   -1.74833250105522
H         1.40802389694858    0.78396484974619   -1.79953127402198
H         0.82687551294783    0.01016621402407   -0.31786803869087
H         1.79480606782212   -2.57449458150746    0.62116554585196
H         3.25874852253102   -3.38528265408197    0.38568776321856
H         2.70840042307263   -2.88285526632619   -1.97612702575015
H         5.08061574785863   -2.13107261399879    1.23914337587350
H         7.21426568978983   -1.90340546505896    1.67145117727602
H         8.35469857995362   -0.61562024417821    2.05835137751660
H         7.75740650796119    0.13873652746563   -0.46227529169558
H         6.24287050244065    4.56343188072539    0.53051650666068
H         3.38656523187194    3.04211466905144   -0.21894015368277
