28
 energy: -47.950443954901 gnorm: 0.111440673469 xtb: 6.4.1 (79825abcba525fcdf90b791dcacef51065a7a4e7)
C         1.02664198794312    0.13515937464724    0.50467947637866
C         2.50534426919406    0.00237824998301    0.21289744324636
C         3.20876373722548   -1.21006862719255    0.01465945997028
C         2.49163871923855   -2.53780828238521   -0.16720512470767
O         3.28319264159871   -3.66437712762236   -0.54323468394652
C         4.61322257494766   -1.19410504525677   -0.18439247042326
C         5.30353142020251    0.01588948044806   -0.33916812169753
O         6.66139956880763    0.16561508803488   -0.48815026302499
C         7.56596911056878   -0.91092582179990   -0.26609770967470
C         8.32364309235270   -0.75596564269847    1.03321730550754
O         9.11382367295033   -1.56310444910912    1.51814804928550
C         4.63172219181989    1.22720236943728   -0.15762090916986
C         5.33759536340922    2.48061086508001   -0.05174649752848
C         6.12590543369213    3.35564808345881    0.14535452741477
C         3.25332969164056    1.20237958313649    0.11949987044962
O         2.62276438842939    2.42533852552464    0.19969880724185
H         0.79926364315442   -0.28123248924781    1.48572489244277
H         0.43687974363997   -0.39577033580724   -0.25552825777040
H         0.74916345803757    1.19500908594711    0.46416922257123
H         1.68804031809119   -2.42209456247983   -0.88438598799234
H         2.00930693127419   -2.76010176956070    0.79408815883478
H         3.75409732159233   -3.53768838502166   -1.38453677640679
H         5.23491629074402   -2.07520798881311   -0.08197248584629
H         8.39343736263198   -0.78926088972852   -0.96853398457686
H         7.23538047208709   -1.94416476302344   -0.41873066613362
H         8.28597397089200    0.23438302021891    1.51774880925804
H         6.75295447274713    4.16706642640167   -0.15433205354790
H         3.33933616892730    3.03734120295727   -0.03819460187797
