28
 energy: -47.954469409315 gnorm: 0.109034952916 xtb: 6.4.1 (79825abcba525fcdf90b791dcacef51065a7a4e7)
C         1.06296749438990    0.24453169339368   -0.37025002214050
C         2.54290917205314   -0.03635383200434   -0.22810923780576
C         3.23506667500764   -1.27083833226683   -0.26113523413503
C         2.42393986546836   -2.54643684383433   -0.41974596047008
O         2.94126738895053   -3.65402919042938    0.31695251184255
C         4.64559928938009   -1.21013810371551   -0.12295280985167
C         5.28854337859370   -0.00279330910144    0.18284127475856
O         6.63691946343569    0.07923139103507    0.43497863070618
C         7.50809135375270   -0.94599506301789   -0.03027827247304
C         8.97173308421392   -0.64936058296078    0.20649778569503
O         9.79749528392535   -1.54516621660501    0.04320269447461
C         4.60523285743821    1.19740787499075    0.39300744181933
C         5.29523326326452    2.42647003278039    0.69928321797834
C         5.62663000294466    3.51495886796016    1.06169179747849
C         3.24582854201621    1.16574956871844    0.03468403451935
O         2.46448595124788    2.30116283535162    0.03836189247292
H         0.44050577829243   -0.64936344371008   -0.40228286841474
H         1.03197106590351    0.91819814301914   -1.23791032855819
H         0.70634059376567    0.85145410147756    0.47021370491428
H         2.29223297981565   -2.79673377478187   -1.46545777129272
H         1.41404941766301   -2.41240034332689   -0.00950380380113
H         3.90268312168819   -3.77710776436638    0.23870980959665
H         5.18860344759981   -2.13612794428900   -0.26795154678452
H         7.33044148264243   -1.10928766291020   -1.09550070710802
H         7.28671841187876   -1.90784200097913    0.44512983652049
H         9.17510830508309    0.42264248435838    0.36906518490051
H         6.09989868427909    4.44774115914730    1.27926069293638
H         2.98069406701462    3.07554304996855    0.31850494076105
