28
 energy: -47.949525207893 gnorm: 0.118665408035 xtb: 6.4.1 (79825abcba525fcdf90b791dcacef51065a7a4e7)
C         1.39295648250261   -0.10059007388664   -0.96603501431554
C         2.81493040187182   -0.05868459609229   -0.45070780071909
C         3.43512334308886   -1.19331768631063    0.12556744596977
C         2.87678159365194   -2.58785616803755   -0.10627849810040
O         3.04280275198092   -3.04662594790328   -1.44757655439852
C         4.65267816863891   -1.06124418286012    0.84145709372579
C         5.30193180688529    0.17881927802248    0.91412688699785
O         6.57226353203403    0.34649660349712    1.41067595583517
C         7.43348926507756   -0.78203979379075    1.30489520137014
C         7.71038703526751   -1.32976500158193   -0.07699725161967
O         8.61973319976775   -2.08292673439359   -0.41883520543231
C         4.69154732512356    1.31200832849630    0.37109897307883
C         5.29412010682443    2.59908466849519    0.61775609406551
C         6.03519588516525    3.46895550252292    0.96431510205719
C         3.47656369731012    1.18826607627777   -0.32595240674562
O         2.86210953735000    2.33991081551494   -0.76848322082586
H         0.66428309667444   -0.43980468733226   -0.23016699102242
H         1.30493599061785   -0.81032165193898   -1.80039413598893
H         1.20712185585281    0.96928938550904   -1.11683378210463
H         1.86680805513982   -2.52121984627972    0.27975453776644
H         3.48502119491869   -3.25755929041789    0.51636541775214
H         2.93549760038406   -2.21358538446970   -1.93759644499204
H         5.20571120422179   -1.95127564195849    1.11592711905903
H         7.09906615260937   -1.64049644091715    1.89152638960369
H         8.35820721055498   -0.39819024659727    1.74955757895860
H         6.92429499665474   -1.00622729432871   -0.78010668449087
H         6.39263348171300    4.34984510616570    1.45183345537209
H         3.38501983680938    3.10507163589797   -0.47572154317748
