28
 energy: -47.952116482466 gnorm: 0.112461490420 xtb: 6.4.1 (79825abcba525fcdf90b791dcacef51065a7a4e7)
C         1.25098641650970    0.13906248898635   -1.02055745801672
C         2.64146894476834    0.01696876933729   -0.43662295530148
C         3.17630025226882   -1.25475198716194   -0.11912255846935
C         2.36134844142869   -2.53223952262404   -0.23792818676065
O         2.87649033200403   -3.68344966505435    0.43024638256978
C         4.49819320880292   -1.30776406882636    0.39290272499783
C         5.26645903123126   -0.17049685821977    0.67743654909341
O         6.52919310086959   -0.26705680723869    1.21091401147695
C         7.48437356643511   -1.10504717756048    0.56912265219011
C         8.56461516506657   -0.28531687309884   -0.09977371422098
O         9.50170240814092   -0.85215131600031   -0.65796941815829
C         4.72378709978570    1.10028290629206    0.47202983283364
C         5.36096175272632    2.38697154313937    0.60965253495063
C         5.86080132668117    3.45305795197176    0.80862963315941
C         3.47009480491836    1.13377448425572   -0.16398271075599
O         2.97712056388541    2.36790468841222   -0.52945787591716
H         0.49302477890627   -0.36584617345256   -0.42214739334925
H         1.12786683039436   -0.35794209067190   -1.99289982463091
H         1.00618670307425    1.20694949016565   -0.98046648347913
H         2.29660484427294   -2.84180114692016   -1.27402100062272
H         1.35432036589691   -2.26607283963613    0.11019949323093
H         2.56900803284723   -3.67427174314201    1.35272178572321
H         4.86547262278351   -2.27313283478775    0.71925271238434
H         6.86461042422489   -1.82156420727360    0.02559732650054
H         8.05784393047094   -1.64341752592256    1.33165625326840
H         8.53057972126927    0.81572147459244   -0.04030639868937
H         6.30349755244479    4.42292914700092    0.87771063602749
H         3.57948254603393    3.12796948860129   -0.46560490045345
