28
 energy: -47.950272683779 gnorm: 0.121686008619 xtb: 6.4.1 (79825abcba525fcdf90b791dcacef51065a7a4e7)
C         1.32938487823500    0.07900129564193   -0.90947159821030
C         2.71324134158133   -0.01528330952899   -0.30500512244631
C         3.42779116088530   -1.19398841409915    0.01779125668099
C         2.92061457176204   -2.56905953658795   -0.38493311916425
O         2.50571508707064   -2.74327886294364   -1.73941429220805
C         4.75868861618229   -1.11859340119783    0.50298058667590
C         5.39891560538422    0.08626384000662    0.82391202772719
O         6.72853285953441    0.35011223376322    1.04956956588926
C         7.63283442639031   -0.71143789459540    1.33565298576104
C         8.16773543047782   -1.53626783245364    0.18681073618800
O         8.75577740733651   -2.60524773660361    0.33682682181559
C         4.63487558193302    1.22240826806368    0.54645098117571
C         5.27334658868041    2.51293885934030    0.63238566822884
C         5.56536192339455    3.66068138143306    0.47946126951403
C         3.31529794104898    1.21437192296433    0.06062359365351
O         2.65277994596127    2.40741113173259   -0.13276820840675
H         0.47823149347705    0.16280627585415   -0.23415845715305
H         1.24939939474806   -0.75986350202799   -1.61482954851031
H         1.40496239935969    0.96478195496990   -1.55103024178747
H         2.02595647969093   -2.72152581952531    0.20654754939180
H         3.75974541099249   -3.24473818317014   -0.17171744166502
H         3.23258864295244   -2.96991150292363   -2.34429688132397
H         5.40616114859090   -1.98665374333397    0.52718575544342
H         7.36587655340717   -1.33825062178502    2.18932861483509
H         8.43159179021269   -0.03971686605330    1.66873843721744
H         7.99644596546444   -1.05364515896333   -0.79028469849412
H         5.89558501092127    4.67483522741903    0.54148514696769
H         3.33119477530993    3.09662796739325   -0.03607727656419
