28
 energy: -47.955325667544 gnorm: 0.109597843600 xtb: 6.4.1 (79825abcba525fcdf90b791dcacef51065a7a4e7)
C         1.52011747792215   -0.04461817132009   -1.05349504122979
C         2.83461340117448   -0.00596886223364   -0.30520717184875
C         3.51271589682151   -1.18819180285735    0.07774271975834
C         2.77660377830639   -2.46829626719842   -0.28240604695121
O         2.76164783988636   -2.78994757651577   -1.67288436959901
C         4.80682167306731   -1.16883079293632    0.65851508064506
C         5.36619358579868    0.09348250622248    0.89983803697586
O         6.64615786046594    0.30105880774186    1.35483571805220
C         7.61322048083186   -0.74353136715935    1.36555865954706
C         7.94721588203653   -1.38608334454239    0.03820186655243
O         8.52199836511091   -2.45681261565114   -0.14667688736671
C         4.65426350928557    1.26372960253727    0.62553298249227
C         5.38936318955857    2.50470171581579    0.61476741036999
C         5.57919714926213    3.66754389805876    0.42051791656257
C         3.37985254647781    1.25805161898586    0.03120776878728
O         2.66748715322354    2.41344109129163   -0.20813248234354
H         0.76477826106872   -0.39171325919817   -0.34885266582061
H         1.61101664359346   -0.69429092315565   -1.93513233662884
H         1.32811491322487    0.96495768688604   -1.43534374459400
H         1.74397281984107   -2.34926066553689    0.02257309855706
H         3.11356690879430   -3.35538400693833    0.27047216185807
H         3.40435069263342   -3.46114640546147   -1.95926810084891
H         5.32221386287339   -2.09424718935984    0.88503375478711
H         7.30250189503788   -1.48456722101927    2.10531713852494
H         8.49244327204241   -0.18422030301443    1.70365154683926
H         7.87494733785796   -0.68671945006183   -0.81188496184313
H         5.91354714047421    4.65662795264028    0.19396748977308
H         3.16141359279484    3.17648096886516    0.13599319099208
