28
 energy: -47.953305269132 gnorm: 0.115893049049 xtb: 6.4.1 (79825abcba525fcdf90b791dcacef51065a7a4e7)
C         1.31009232876951    0.21994271522507   -0.92583758341849
C         2.65968486084480   -0.00636449455780   -0.28030440015778
C         3.41174342976313   -1.20514958255005   -0.31834293333573
C         2.86391934548943   -2.44331288155154   -1.00904985999655
O         3.93530104430926   -3.36815139496886   -1.19324595095548
C         4.72050470747548   -1.31684600476567    0.21742660164660
C         5.28833871842537   -0.14141405616699    0.72781160810453
O         6.47839169604497   -0.00977368977281    1.40224773997291
C         7.41947277205846   -1.00644455509811    1.01818090386577
C         7.90420122970831   -0.72778546507430   -0.38669968541837
O         9.10802557540293   -0.72771858491530   -0.63534234463711
C         4.56724352208143    1.05143108727179    0.82112909366851
C         5.20972527335577    2.29750445831238    1.16027148430297
C         5.64873676699673    3.35446151980331    1.50098015962557
C         3.24232366784278    1.11852824703416    0.35479942765419
O         2.44534047010936    2.23708035857497    0.47026374103354
H         0.56341379170339   -0.53988449228841   -0.69634470030385
H         1.44999130572297    0.22302812287935   -2.01581025416221
H         1.02629822758568    1.25908065653902   -0.72195016376468
H         2.37470286664431   -2.25740391942678   -1.95752945640707
H         2.18572364642487   -2.95605402776449   -0.31385906519663
H         3.62211143199385   -4.13324019227255   -1.70524386871636
H         5.22676904890234   -2.23017912810389   -0.07041772766352
H         6.99063046022911   -2.00247127772026    1.14836472285095
H         8.29120596793183   -0.94753974629456    1.67907412027749
H         7.13317853539303   -0.49924479991695   -1.14186416188737
H         6.03653076858243    4.31436729393226    1.76479636041659
H         3.05906478675239    2.97525940977061    0.62208540384427
