28
 energy: -47.946317389928 gnorm: 0.119713058264 xtb: 6.4.1 (79825abcba525fcdf90b791dcacef51065a7a4e7)
C         0.92968845754062    0.11808667560542   -0.28707780139480
C         2.42177296399356   -0.05919536814628   -0.10936194561087
C         3.19739816439524   -1.10445902947426   -0.66609717556607
C         2.63807034148136   -1.96743155783862   -1.78532298735952
O         3.57964853521882   -2.58247530194537   -2.66410902781794
C         4.59521244406244   -1.07067750359794   -0.42660774523591
C         5.27241649597042   -0.14839701331894    0.38293652816319
O         6.61143553760271   -0.11324268268075    0.68987549212654
C         7.48185637509876   -1.14711224243753    0.24268981927925
C         8.80366412479162   -0.90026047973877    0.93420302400645
O         9.77565886993049   -1.63055929701418    1.11560336243907
C         4.52610191181113    0.89664326171689    0.93291046239617
C         5.16217538531749    2.05237998778599    1.51616200969329
C         5.50993735290619    3.19353703975808    1.56901966656750
C         3.15181187953109    0.90050531264288    0.63510181499383
O         2.48356810060057    2.04448608744693    1.01514298904029
H         0.47080556707150    1.01066009418159    0.13750715616678
H         0.43692236449417   -0.82462646857366   -0.01122427703078
H         0.69698170752116    0.25301554399355   -1.34988474316896
H         2.07852029438773   -1.22448460970372   -2.34069856344229
H         2.00233637180316   -2.77721425989020   -1.40291297380248
H         4.23052852568512   -1.89297588744794   -2.87983168152506
H         5.17135218603381   -1.82749867432589   -0.94489342361171
H         7.70137611628484   -1.18374538569358   -0.82660521899543
H         7.13061580165268   -2.13606165404929    0.55697870136753
H         8.94060298872112    0.10115397623536    1.37624041054591
H         5.92616057105206    4.11376537950884    1.91735903426530
H         2.90961535435785    2.54053222686718    1.73419627401195
