28
 energy: -47.948766329752 gnorm: 0.122009460208 xtb: 6.4.1 (79825abcba525fcdf90b791dcacef51065a7a4e7)
C         1.07395541655395    0.20791357857785   -0.47516568443690
C         2.57158895640534    0.06137587209701   -0.31721471657099
C         3.38244387403359   -1.06914769229715   -0.57904568418165
C         2.76362719555311   -2.26468109210601   -1.28473784334421
O         3.62758776922250   -3.15750120619567   -1.98727437463790
C         4.78637691380216   -1.02614455506756   -0.38028983119169
C         5.36386742026147    0.10132451955020    0.21961579345344
O         6.71109140128759    0.37068558482234    0.24879635686019
C         7.73444160532894   -0.44893341822807   -0.30570591564630
C         8.17630441334678   -1.44901100103111    0.73875763826303
O         9.32189453890587   -1.87440926956219    0.87170802869117
C         4.56204298470657    1.13867520349690    0.70184714476748
C         5.09216326572697    2.05989302995238    1.67695195085972
C         5.28236271476463    2.85276110508886    2.54939455305679
C         3.20749429230525    1.15316012638938    0.32453293751068
O         2.45367562276859    2.20132509657126    0.80700641167602
H         0.64478284028157    1.17050770944072   -0.19811579667551
H         0.55369214574102   -0.65223169058207   -0.03120858351873
H         0.87440138646426    0.07077856211837   -1.54441261895588
H         2.05309339445672   -1.88632010074461   -2.00964689044045
H         2.29275968692105   -2.94022038664814   -0.55805113316487
H         4.26854986726167   -2.55238295973145   -2.39787145792911
H         5.37017091939428   -1.89791097294988   -0.64962827268046
H         8.61646140864844    0.19394477647245   -0.34658963187501
H         7.47527025410613   -0.80676980861154   -1.30817871148616
H         7.43188985240604   -1.87508096569533    1.43250943931105
H         5.59080728974047    3.63985002965179    3.20265960924043
H         2.94762337690219    2.73857845255415    1.44887096828810
