28
 energy: -47.951134483713 gnorm: 0.127457915922 xtb: 6.4.1 (79825abcba525fcdf90b791dcacef51065a7a4e7)
C         1.04986537670961   -0.04001244487204   -0.43474707085378
C         2.53249508903689   -0.09713027116633   -0.13831036057039
C         3.24136759682361   -1.31045522135633    0.03334927038919
C         2.66709630865578   -2.70010389857119    0.25544084622891
O         2.32083134945927   -3.15141178008955   -1.05357977794391
C         4.63027602620926   -1.22237165797719    0.30822345399061
C         5.35181776704289   -0.02072937063084    0.30960320383021
O         6.72348554383100    0.03786895111576    0.36887458209309
C         7.55737504669201   -1.11531197984967    0.33287787662247
C         8.95029975914291   -0.56172541748884    0.53188716699042
O         9.95265569679870   -1.25915979815975    0.39087620995049
C         4.63136060073923    1.17247648681619    0.21596982766922
C         5.27533821126960    2.44933117670474    0.40420937408251
C         5.76040584961781    3.53912291200855    0.45930088459566
C         3.25743169249740    1.11906250269810   -0.07872373062195
O         2.59794348683881    2.32083886166579   -0.22183885832621
H         0.71936948031237    0.94583652577329   -0.76094865750569
H         0.46683601620271   -0.13856725597206    0.49152793018136
H         0.75338078262195   -0.78110162563912   -1.18627919842954
H         1.73056109680141   -2.61545656289989    0.79325594069925
H         3.36122179101955   -3.49099149749290    0.56981283141856
H         1.85586480271022   -2.46529359974885   -1.56214483912505
H         5.13098434822417   -2.12820275929452    0.62774893042603
H         7.51477182444653   -1.53399531073578   -0.67499712461090
H         7.46291260944674   -1.88495561752987    1.10676023078353
H         8.95328857039768    0.49160245050355    0.85971591248482
H         6.30789073487934    4.42504500800772    0.69763805917860
H         3.21185702547332    3.06211996413167   -0.08682716602132
