28
 energy: -47.946527801433 gnorm: 0.118507739150 xtb: 6.4.1 (79825abcba525fcdf90b791dcacef51065a7a4e7)
C         1.22790444872253    0.10508789403152   -0.75935753527687
C         2.64195197433633   -0.01892960510153   -0.23550899418262
C         3.51083235248469   -1.11766800211674   -0.44031505538476
C         3.17743109850142   -2.48335680896586   -1.01821930065813
O         4.23837125539394   -3.00625178300312   -1.81703094621199
C         4.84450014175103   -0.99507808417450    0.02732059543275
C         5.32318654998285    0.22434770654180    0.52574675445745
O         6.63563949427343    0.30901103446527    0.92414196492062
C         7.57440927873875   -0.76102508765186    0.90905190369068
C         8.19413222876753   -1.22078840018042   -0.39128004798517
O         8.68215842976565   -2.30586579229194   -0.70023588133354
C         4.49321135744651    1.31470681191000    0.79745274942026
C         4.91299375025531    2.47665778957931    1.54186650536093
C         5.03167652204058    3.46287586324303    2.20463344498153
C         3.15495689247741    1.13700016980911    0.40391326521233
O         2.24967920254001    2.16882050601235    0.52838073604199
H         1.09332932716334   -0.30729541916259   -1.75903885751008
H         1.15151503627240    1.20001737954547   -0.70535983364081
H         0.47710447850060   -0.27854193708239   -0.05861194228877
H         2.24636773240188   -2.48586957633213   -1.57195492572434
H         3.01049502820370   -3.01397523068489   -0.07126651754875
H         4.06605767172301   -3.95283915319594   -1.95799494097279
H         5.49480049611467   -1.81915995501936   -0.23976338765982
H         7.18440688196943   -1.63230014550579    1.43980672990089
H         8.43755789895231   -0.31160636973936    1.41220760322498
H         8.16069006874525   -0.46514953294632   -1.19431911193013
H         5.14540820763238    4.34709787043431    2.79337685926125
H         2.61353193971160    2.99775525397048    0.88206707973578
