28
 energy: -47.949292991298 gnorm: 0.116661857041 xtb: 6.4.1 (79825abcba525fcdf90b791dcacef51065a7a4e7)
C         1.14071766889625    0.20433996830081   -0.69360967803092
C         2.55427965180774   -0.04739871974327   -0.21632759175523
C         3.37519034810368   -1.19884970167065   -0.28259196816338
C         2.80290422505469   -2.50681077411649   -0.80409178500536
O         2.55110329055549   -3.46294135825735    0.22523994545828
C         4.75015073156770   -1.16105785106434    0.06444819575861
C         5.40950072138806    0.02934457770181    0.40025800153513
O         6.77107760062258    0.18548530542892    0.50099444471313
C         7.42794396226684   -0.97897556747037    0.01206582206515
C         8.89975194904696   -0.66454861981626   -0.13360154327372
O         9.65702051843035   -1.57244795419891   -0.47017151277560
C         4.57407207308121    1.13314853447078    0.58798589404857
C         5.07465164919533    2.41785380482469    1.01160325681977
C         5.63149767126694    3.46814077423370    1.12470285665481
C         3.18351608986484    1.06876558396836    0.38902130242768
O         2.44883709166600    2.20027547779282    0.67116522093795
H         1.24779597992348    0.62275461378257   -1.69410786886862
H         0.56840288565358    0.94278719486269   -0.11501384032595
H         0.48255128139180   -0.67243108312945   -0.69108855285479
H         3.37835842548571   -2.94391155066821   -1.61112575153236
H         1.81478205733856   -2.26407036082543   -1.21741345482877
H         3.41616433882198   -3.61654394023592    0.64197259152445
H         5.16241709064153   -2.16259748508734    0.08148181733815
H         6.95708784905964   -1.25409795372733   -0.93425599466493
H         7.27794530050840   -1.79569250242338    0.72665817748945
H         9.13672956140312    0.40756142430918   -0.02682194761238
H         5.88563094667457    4.50540771378518    1.09477208810536
H         3.05163386527026    2.85096517891317    1.06847445548998
