28
 energy: -47.947881929074 gnorm: 0.120980827412 xtb: 6.4.1 (79825abcba525fcdf90b791dcacef51065a7a4e7)
C         1.26211535803652    0.01621657653312   -0.46773134900687
C         2.75936076588124   -0.06832455383226   -0.26664174506556
C         3.59093717049130   -1.20603230033570   -0.13163629490608
C         3.18735921524796   -2.61300654325371   -0.54125068808051
O         2.33399624904072   -2.61521624897446   -1.68531361594852
C         4.93133925365439   -1.11530859103675    0.32385534418967
C         5.47774726576969    0.17386882135814    0.38732556271743
O         6.79160540523058    0.41042028269802    0.71326967533392
C         7.51004845163532   -0.64098293330676    1.34957510504848
C         8.03609609656834   -1.64617166213089    0.34998942717855
O         8.58812322243942   -2.70905497684355    0.62668662998842
C         4.73617015819955    1.33927774498935    0.17887555705960
C         5.30628140416658    2.63438112399951    0.45848172543064
C         5.72214676474930    3.68011783591334    0.85780922927342
C         3.37671413430953    1.20221938357242   -0.15349823281571
O         2.54282043397750    2.29957268095575   -0.14300551061899
H         0.71983687448180    0.01823722643407    0.47750045915028
H         0.88312801322352   -0.80704721479928   -1.08920297847135
H         0.89792496742840    0.90799737362585   -0.99119022629294
H         2.61005852862129   -3.02406164977511    0.27805759913041
H         4.05986371467040   -3.22695754072116   -0.80190985083700
H         2.90225366839711   -2.32764857541084   -2.42014611885840
H         5.43708573727085   -2.05427763188592    0.51330974367817
H         6.99496951592716   -1.26198812096021    2.08576056486552
H         8.29074452573150   -0.19327232802444    1.97426481744291
H         8.11875915689417   -1.25963157087794   -0.67992988651677
H         5.75172804027810    4.69875360726843    1.17860260174546
H         3.17964983197639    3.03174384574954   -0.19768065733214
