28
 energy: -47.951317028394 gnorm: 0.107358557164 xtb: 6.4.1 (79825abcba525fcdf90b791dcacef51065a7a4e7)
C         1.36690609349502    0.13195425400079   -0.98724344354187
C         2.75977693840637    0.06152148365570   -0.40049131272101
C         3.47101379278760   -1.16250366699260   -0.40589988847080
C         3.06462322746922   -2.45905517983156   -1.08710213488578
O         4.22546023730350   -3.28943749366980   -1.08111342888911
C         4.70464027110829   -1.20449265366834    0.29323084765076
C         5.27324888865284   -0.02827803248087    0.80094333120268
O         6.50935772378489    0.06250917907298    1.39441783031375
C         7.46541231857952   -0.89311170974876    0.94805244043257
C         7.89609360520711   -0.78179107316843   -0.49708539966424
O         8.57278192408633   -1.65630590918504   -1.03405183350725
C         4.53907682789510    1.15697333843715    0.88890079422813
C         5.00751124270204    2.35353375327867    1.54411950346195
C         5.35183812838670    3.47809635187565    1.75092780089686
C         3.27666652269892    1.19748400919891    0.27079312509249
O         2.52948020206863    2.35461816067502    0.32004954495765
H         0.83741550686898   -0.79351745744363   -1.21235459254957
H         1.33089577461644    0.63600856670015   -1.96307855734843
H         0.81281043703583    0.71588923752411   -0.24298893691108
H         2.75957464270189   -2.27649761670341   -2.11039414836714
H         2.24019541323302   -2.94060366748864   -0.54435637704696
H         4.06506385495181   -4.23856376664034   -1.21903654433307
H         5.21187133637760   -2.15562776563238    0.39997341244560
H         7.06940955466166   -1.90986741638089    0.99614016309842
H         8.25959446160391   -0.71628053277550    1.68165576852799
H         7.54179968563427    0.08119564566489   -1.08590621913010
H         5.73539652962859    4.44367048936878    1.99982899484623
H         2.82321106845785    3.03092523834807    0.95325296668852
