28
 energy: -47.945467378149 gnorm: 0.125891051799 xtb: 6.4.1 (79825abcba525fcdf90b791dcacef51065a7a4e7)
C         1.28753190343090    0.09602808102604   -0.91905763824501
C         2.72799342191010    0.02538934129999   -0.46144556362822
C         3.58453442641302   -1.10165596898356   -0.44624474382040
C         3.08040260231590   -2.41420502016934   -1.02356762828023
O         4.08364238523407   -3.39579614716654   -1.28260817973029
C         4.86767909536428   -1.11108219415135    0.15859576799187
C         5.30022441170074    0.03060463693854    0.84708998961667
O         6.57379902330806    0.14082479576808    1.35135040443889
C         7.71205326945264   -0.65729913935399    1.04496963875862
C         7.78547857122239   -0.95059120253913   -0.43654665152599
O         8.29832919230320   -1.99371806989468   -0.83640513674956
C         4.49161869818221    1.16976363291099    0.84080340661346
C         4.86162122489447    2.44560799808980    1.40278070168926
C         5.43781237583272    3.28474685829253    2.02713753211559
C         3.24586989807744    1.17323925503454    0.18851831386718
O         2.50651213448958    2.33639892238051    0.19761415961216
H         0.90663671354312   -0.81377883292652   -0.45569660548569
H         1.22288540987105    0.04332732871917   -2.01480629725140
H         0.74735286128241    0.98679234641516   -0.57749878294008
H         2.49546029304882   -2.32627812712238   -1.93110264229197
H         2.40402778307451   -2.83915968878841   -0.26986094727644
H         4.07813281832158   -3.66332582758192   -2.21748142355052
H         5.55904651052778   -1.94151747362604    0.23425072209542
H         7.68222925621536   -1.54783703908162    1.67661476025627
H         8.47002308204506    0.08995401055797    1.30432051426608
H         7.35470494639511   -0.16111717553401   -1.07540896828581
H         5.82134665557287    4.14269946913444    2.53529207980424
H         2.82593652951301    3.02059008219809    0.80955057170482
