28
 energy: -47.952471394707 gnorm: 0.112868797422 xtb: 6.4.1 (79825abcba525fcdf90b791dcacef51065a7a4e7)
C         1.52055227220593    0.10270877652666   -1.09174600872097
C         2.86408550944950    0.04641040392582   -0.39814888176130
C         3.45928225847367   -1.13366527789681    0.10908569214308
C         2.87054462185149   -2.52302753069921   -0.07338662918358
O         3.64973926473553   -3.26430871074292   -1.01172086318985
C         4.74340764349080   -1.01756806105265    0.70062992806472
C         5.44405679054888    0.19201844021803    0.80339100912619
O         6.76818057019621    0.37251390064860    1.12360494210425
C         7.66383032747869   -0.73295183878574    1.07616295950169
C         7.36561416957169   -1.65485770164728   -0.08463794287207
O         7.59035752081242   -2.86039304506400   -0.16943883753840
C         4.78997873617160    1.37694393902452    0.45741496675945
C         5.33355527447420    2.70060080258973    0.63895354257870
C         5.53573893517062    3.82170529626026    0.99702923735681
C         3.54988377806658    1.27008805277772   -0.19689713096190
O         2.89453320764527    2.41767302074580   -0.58835265367495
H         0.69104272751657   -0.11214294943547   -0.41848093518326
H         1.58915409754600   -0.69669852227873   -1.84265441103688
H         1.35553676815718    1.12854169123701   -1.44153672596558
H         1.83889997245053   -2.51432205966017   -0.40375306074843
H         2.91216047066307   -3.12792440448903    0.84231584353622
H         3.31498377897351   -2.94309427384279   -1.86632633887386
H         5.23981670102418   -1.86936701679262    1.14935247123079
H         7.59118948351209   -1.22195221124782    2.05008530179965
H         8.66575949560084   -0.29091370714113    1.04601971217979
H         7.14904030355601   -1.00032592146712   -0.94583717993631
H         5.68285569899333    4.80144822031320    1.39685761449444
H         3.49998388623422    3.15112880414510   -0.38813338471123
