28
 energy: -47.959990823738 gnorm: 0.117011947467 xtb: 6.4.1 (79825abcba525fcdf90b791dcacef51065a7a4e7)
C         1.18781143988569    0.03783192763997   -0.78615526721623
C         2.62509103261678   -0.03175886708400   -0.31848814651629
C         3.47174612195805   -1.16599542822893   -0.34690110803078
C         2.92467604503485   -2.49955289625057   -0.82916084200869
O         4.04408648696096   -3.34575652463687   -1.08987697733272
C         4.77571300683613   -1.15277707380785    0.21155820324772
C         5.29798307746275   -0.00559671605206    0.82456700508480
O         6.50133419257740    0.05292043321171    1.48558228534746
C         7.54361907388383   -0.87403131843527    1.20115934828608
C         7.92261643484553   -0.77717734883286   -0.25941668261923
O         8.30354044852620   -1.72985166382470   -0.93641356296409
C         4.58868774332393    1.18584201173576    0.65444980349362
C         5.19256555854581    2.41608169388316    1.10427322785228
C         5.57211330386368    3.51611333374652    1.37231356741721
C         3.27115753460996    1.13278883923730    0.16590347600848
O         2.53558484324382    2.29189049110941    0.04306522331470
H         0.86740196617374   -0.80240318055848   -1.40168425801405
H         1.10021027316998    0.96066567257361   -1.37634640790206
H         0.60816290434904    0.19743806185864    0.13060549229076
H         2.24161246187873   -2.53810152595692   -1.66906952310080
H         2.52141772312949   -3.03878880680644    0.03845110484250
H         4.52096889085174   -3.04015435947894   -1.88030784609364
H         5.38493704383631   -2.04804984918145    0.23740525368560
H         7.30007629492048   -1.92659596448414    1.36152569401414
H         8.40986428751040   -0.57655511581959    1.80223797987839
H         7.81720081472534    0.21348348437988   -0.73318759453454
H         6.03668077950490    4.42499850204312    1.68776100122911
H         3.09732775022018    3.06536093324272    0.21857603767988
