28
 energy: -47.951081769378 gnorm: 0.114441159150 xtb: 6.4.1 (79825abcba525fcdf90b791dcacef51065a7a4e7)
C         1.35141975221786   -0.01945493204771    0.83473016254832
C         2.73699290029806   -0.00144896599720    0.22711937610954
C         3.45457281206243   -1.17816155786981   -0.09622448151546
C         2.94981679943468   -2.57640869757820    0.22057503366115
O         3.27227739666981   -3.53108361069144   -0.79023067827090
C         4.82619325551027   -1.02469188017341   -0.42407440113059
C         5.53170176166357    0.17918484990035   -0.55638893348330
O         6.89920174750648    0.21317474465417   -0.68756751013149
C         7.63939113062245   -0.94226595576213   -0.30866093584915
C         7.46302099120708   -1.19661547577758    1.17137349852404
O         8.12073059488509   -1.87048008434667    1.96152588643009
C         4.76928480826192    1.33654994843240   -0.38091141105845
C         5.29652072434133    2.67532926414067   -0.48186394549434
C         5.76621173318612    3.77304494580260   -0.46231019832822
C         3.42185463478543    1.21891291872346    0.00375916133092
O         2.79674206742751    2.39999793518899    0.34131733237434
H         1.31748905175282   -0.65011196870950    1.72279188067699
H         0.66113903852810   -0.45571705903211    0.09933261194810
H         0.99821705990926    1.00050220138302    1.02669925635770
H         1.88478651315176   -2.58897065636570    0.41821393317695
H         3.40928150805192   -2.88109989076849    1.17041638240481
H         2.75913972517369   -3.31369808445436   -1.58711444097887
H         5.26620546698583   -2.01112615711716   -0.50575675586319
H         8.69963994732017   -0.75386149475287   -0.49114104541013
H         7.35054411868678   -1.90579536947160   -0.74265039699429
H         6.63412610249163   -0.53169552796834    1.46767561309281
H         6.15508561825573    4.71170451263707   -0.13201096153617
H         3.45070064105098    3.11367431953720    0.42860917654288
