28
 energy: -47.948960265067 gnorm: 0.111088827634 xtb: 6.4.1 (79825abcba525fcdf90b791dcacef51065a7a4e7)
C         1.16580445282799    0.01129003860678   -0.73977618150038
C         2.58244824077094    0.08321016565314   -0.21320621666833
C         3.35634372225596   -1.09664200519689   -0.32792049534019
C         2.63663773693200   -2.39214437078585   -0.66545947186029
O         3.45033129896463   -3.46721461415387   -1.13369015835724
C         4.71149017324996   -1.08394276316320    0.09136222473356
C         5.36201897353617    0.11954397059399    0.39632215526503
O         6.71218354605902    0.22180206141679    0.63088190832545
C         7.41426626177716   -0.95294298907823    1.02273348892746
C         8.66960800191928   -1.10519443932228    0.19373490919719
O         9.43667308408383   -2.06301673773557    0.12159729778842
C         4.55592699548394    1.25504790711346    0.50773361021750
C         5.22785893821440    2.51251795403972    0.72631030119187
C         5.60046439815268    3.61727544880995    0.98447262242156
C         3.17301120400231    1.28348870253383    0.25452806786013
O         2.27034515618865    2.31482037748605    0.40020591790182
H         0.57552038157738    0.92128829950537   -0.63489010903663
H         0.58667228715765   -0.84090402331262   -0.35768603398780
H         1.27749397377145   -0.10669963797010   -1.82399051597605
H         1.77272575361789   -2.30691715691845   -1.31345704719145
H         2.26557161578131   -2.70454312762132    0.31986285393103
H         3.73488638224760   -3.37166994836429   -2.05861723081061
H         5.36306141359530   -1.93762055690230   -0.05014567908989
H         6.83988171760083   -1.87989551044115    0.96138038438223
H         7.77186997266882   -0.77293322127163    2.04248073880150
H         8.89770460725715   -0.18975541114730   -0.37803737159897
H         6.05396386465106    4.57079706855987    1.14737453334035
H         2.58011638622924    3.15087941885819    0.78706858501334
