28
 energy: -47.954640916488 gnorm: 0.125622054283 xtb: 6.4.1 (79825abcba525fcdf90b791dcacef51065a7a4e7)
C         0.98517219720269    0.06795193154155   -0.37152241164157
C         2.48163514544383    0.08486254471049   -0.14872046670511
C         3.12675586520540   -1.17512069070997   -0.16837227592990
C         2.43518981442482   -2.52090565682234   -0.31271507241679
O         3.08989552003829   -3.56980078159051    0.40023139678410
C         4.53536838521597   -1.20511584191090   -0.00316873351742
C         5.27728147463355   -0.02059700036090    0.10194384910520
O         6.63252260416006    0.03942226626576    0.32134878791329
C         7.40047347485583   -1.14947365202063    0.16879817551180
C         8.80812533429230   -0.60101965016554    0.23217394233108
O         9.82373848738560   -1.13200264270815   -0.21235189126470
C         4.60572603056426    1.19797414692291    0.22709817508195
C         5.36844976171004    2.37220246872586    0.57342109159190
C         5.85624787108137    3.22230822186617    1.25558305343127
C         3.22891493449129    1.28449456023287   -0.04545166043962
O         2.60530805609833    2.50082622559858   -0.22243973767050
H         0.86234790250639   -0.15483767529199   -1.43115073930783
H         0.54564666056833    1.06282812970527   -0.21448637969053
H         0.45027809292803   -0.59938116617972    0.31438695573219
H         2.28321862040492   -2.75751879872845   -1.35886392633387
H         1.45938300207199   -2.46271127906366    0.18784222289758
H         3.86398327186586   -3.84699745171690   -0.11894162484989
H         5.05768325883103   -2.14972026240827   -0.09397067832554
H         7.22886353331711   -1.47463620157020   -0.85966773615194
H         7.19953852124709   -1.84093716857617    0.99443231514660
H         8.89666257988662    0.34159496297893    0.79840628417695
H         6.46951037006289    4.01592899702764    1.62365566657243
H         3.31521468738727    3.15402321699968   -0.10419452320642
