28
 energy: -47.943992447097 gnorm: 0.114164423509 xtb: 6.4.1 (79825abcba525fcdf90b791dcacef51065a7a4e7)
C         1.20154044308322    0.26112322602108   -0.96916706362422
C         2.58972352221744    0.08921564694096   -0.39234510731113
C         3.25014012029889   -1.15246183851645   -0.23044500788752
C         2.61409260707517   -2.52393365072183   -0.38774809394410
O         3.26318700337996   -3.35824094976594   -1.34676895376662
C         4.60663785395190   -1.12980491045466    0.18402058890415
C         5.23618414105453    0.09285919747446    0.45482040726722
O         6.52988575386554    0.31570600227364    0.86113902078049
C         7.34554826511154   -0.77274689314443    1.28120889293105
C         8.27951266102935   -1.29578386190447    0.21329275863897
O         9.23778655160753   -1.98975101276484    0.54666488562478
C         4.56119429961834    1.31221976195021    0.35935041366900
C         5.30201244515608    2.45552793951347    0.83320071465429
C         6.09870596006175    3.10529066188859    1.44070345880163
C         3.24293248944497    1.31914633415620   -0.13005313586253
O         2.67485816452761    2.48177086296761   -0.60467806342367
H         0.60431660200183    0.83220988829912   -0.25873274696816
H         0.70082532134960   -0.71438488899624   -1.04189910719701
H         1.13710471291250    0.71445837924027   -1.96528558200422
H         1.59268603486257   -2.35417036582421   -0.70620922814363
H         2.67275240570888   -2.97373512940182    0.61244228194909
H         4.13720979026349   -2.95020637535377   -1.46998592798616
H         5.08360450301171   -2.08693294693558    0.01155587915632
H         6.65540514537797   -1.53443531733898    1.65060841300935
H         7.91748994296241   -0.43331345938965    2.15174668357978
H         8.03589107989650   -1.07743392726584   -0.84024985921122
H         6.88373896367916    3.63101127562969    1.93944517300858
H         3.33698742492635    3.18053518164503   -0.47077908826403
