28
 energy: -47.954605802360 gnorm: 0.117303655482 xtb: 6.4.1 (79825abcba525fcdf90b791dcacef51065a7a4e7)
C         1.01307505383731    0.06911848405188    0.14143792951403
C         2.52357207549137    0.06337278314092    0.05372373089063
C         3.22770038757016   -1.15442418260751   -0.10533153462839
C         2.50503339517977   -2.48975877674334   -0.03554922791133
O         3.32362023855320   -3.65762697374301   -0.09134050651069
C         4.62965568734628   -1.12669450324042   -0.32011878227104
C         5.31212366473931    0.09419797353423   -0.22941268868322
O         6.67767696174560    0.11870982720870   -0.38134264900660
C         7.58423986212650   -0.97454604829581   -0.28423952014763
C         8.38536872098248   -0.97821563570073    0.99813371404772
O         9.36874034363150   -1.67047225659973    1.25264746729641
C         4.62814662855574    1.29132295896718   -0.00439460639518
C         5.26917682217896    2.58065837640071    0.08042096067130
C         6.06199344391371    3.46735831257939    0.18614114937384
C         3.22336721754343    1.29563597885618    0.05848789826636
O         2.54792746996657    2.48094488197398    0.25469442523345
H         0.73301785161231   -0.59122024403316    0.96183657516130
H         0.63256171436492   -0.29973413626267   -0.82125569261957
H         0.61986169536890    1.05452482522560    0.41761618412528
H         1.71887108900779   -2.59023433791874   -0.77403547593615
H         2.06515367436704   -2.46336772004573    0.97040925781966
H         3.72640350520576   -3.72134168373430   -0.97411824952161
H         5.10975307465041   -2.09642749061718   -0.36971480444251
H         8.30615696920725   -0.92224332065637   -1.10217771967612
H         7.18852251035659   -1.97748429999938   -0.47838126570493
H         8.03664904217354   -0.20517046301848    1.70366610989007
H         6.50393165381001    4.39097626894369   -0.11885519478637
H         3.16239155526444    3.23388095545836    0.24299741381839
