28
 energy: -47.950934684469 gnorm: 0.115685925798 xtb: 6.4.1 (79825abcba525fcdf90b791dcacef51065a7a4e7)
C         1.21811411228958   -0.14664124959024    0.50913924348230
C         2.67645896798597    0.03092827822280    0.14716219431110
C         3.51587219357744   -1.10528109450173    0.05475873134229
C         2.89744499756800   -2.48814282159161    0.17916484429931
O         3.76700889872374   -3.38891045922024   -0.50610116516694
C         4.92891036879479   -0.98337520443456    0.08379715186573
C         5.46460431696953    0.30384484363437   -0.05995652826506
O         6.82642174991095    0.44300396411063   -0.18040310137741
C         7.61916109565809   -0.73559307921133   -0.27509771581505
C         7.66021384869643   -1.49859627933072    1.02967920776963
O         7.72442001342352   -2.72306357665184    1.11670585081286
C         4.64288247962122    1.43282351321472   -0.10174573465155
C         5.28502486968223    2.69349682188066   -0.38255732167579
C         5.85022605139785    3.66291226487828   -0.79091137998914
C         3.25322744290570    1.32379538180335    0.08359107147370
O         2.51347228030371    2.47825048866638    0.22383637912622
H         0.83669764042206   -1.04325418695585    0.02114341950984
H         0.70826834922027    0.70881947014835    0.04452550783262
H         1.06664466437304    0.01066702305929    1.58348925304788
H         1.87648000859633   -2.51085429398582   -0.18225337650018
H         2.76896621327329   -2.84691423844095    1.20917426159795
H         4.26401050909823   -2.83531195749543   -1.13228689418257
H         5.56841592218770   -1.84867465494210    0.20879651385576
H         8.60700864860843   -0.42312572012686   -0.62070464167468
H         7.28482646778410   -1.49217274938171   -0.99341236857428
H         7.62861940860862   -0.87258174558238    1.93747203162769
H         6.49336076027660    4.50293627378345   -0.93970546198553
H         3.09857795049571    3.25427449611518    0.23116828406795
