28
 energy: -47.950013178296 gnorm: 0.127397879588 xtb: 6.4.1 (79825abcba525fcdf90b791dcacef51065a7a4e7)
C         1.56041634551192    0.20164620632991   -1.32013377673514
C         2.82343413877853    0.09938639477043   -0.49329822312033
C         3.43846474577790   -1.13216228511008   -0.16291977941363
C         2.87143092936243   -2.49198709584893   -0.53653024023720
O         3.29653206119091   -3.48474851006488    0.39665089020985
C         4.67956703913005   -1.15543041303543    0.52374233627994
C         5.33862577755454    0.03547174494558    0.85834989985602
O         6.53302972189566   -0.02773992127346    1.53497598921534
C         7.46206256361639   -0.95490624450752    0.98383687556398
C         7.54608560693693   -1.06028771989085   -0.52219662499581
O         8.41692377925760   -1.73693303884525   -1.06515907342474
C         4.74247209929675    1.25434203527293    0.52590144917027
C         5.33191988194640    2.51196139487454    0.91505960381812
C         5.78042610071810    3.46294822837963    1.48113198943571
C         3.53344444885883    1.28805774566354   -0.19138050149573
O         2.87865567954835    2.42562170825452   -0.61194316571754
H         1.62129161424394   -0.55988924962519   -2.09723812121912
H         1.40772209490531    1.21908900670213   -1.70628954670062
H         0.69441454943927   -0.14967820632472   -0.74695939038408
H         3.40376264699786   -2.86518502296577   -1.40304896707472
H         1.78732172209412   -2.41364195442892   -0.69373200305391
H         2.72506512158590   -3.34900111463901    1.17162743861639
H         5.03256912055329   -2.11093565911530    0.89216410046366
H         7.30033393919416   -1.97515988057430    1.33858912092793
H         8.41452493551258   -0.51960904011264    1.30555128136406
H         6.76368252981617   -0.44393704140807   -0.99647237008258
H         6.04024623433687    4.49670607931081    1.55352318110994
H         3.54682752809522    3.10197639661808   -0.41018493414797
