28
 energy: -47.959201645256 gnorm: 0.110335632555 xtb: 6.4.1 (79825abcba525fcdf90b791dcacef51065a7a4e7)
C         1.06820772624514   -0.02009395970883    0.25696568039562
C         2.57157785616527    0.07827339656998    0.11721534893730
C         3.38756955701580   -1.07840866829568    0.13642085225972
C         2.78747260414015   -2.47373730838997    0.19278806931925
O         3.66613664936937   -3.59817488966276    0.16627710669225
C         4.79471565974982   -0.94075228217968    0.02078468006097
C         5.44834004226584    0.28715730469170   -0.15120893515872
O         6.80536700530304    0.42183421065750   -0.32079465089133
C         7.58745260977894   -0.76339177324568   -0.42116998108258
C         7.95299222380204   -1.48729512928129    0.85501446965995
O         8.22289268833670   -2.68332492386476    0.94266547893084
C         4.63499187721220    1.41893464875821   -0.05575850252767
C         5.30968455610548    2.69182025519078   -0.12683061598462
C         5.94464330159313    3.67207878029471   -0.37561235233561
C         3.24002372070916    1.32765304530048    0.09625965495023
O         2.51191719047293    2.49737183267005    0.06031673681548
H         0.87072066441267   -0.56543595472885    1.17953501637640
H         0.64821588802562   -0.52853260472200   -0.62207849620168
H         0.60775194890717    0.95297045702611    0.46443362248122
H         2.01719498294324   -2.56555663590610   -0.56335348351403
H         2.28116715169847   -2.58420216679470    1.16108318593733
H         4.22568169579675   -3.53894538491530   -0.62681284671084
H         5.39187032279680   -1.84438303603608    0.00688832273302
H         8.51319420123559   -0.23411618601440   -0.65737465374510
H         7.18011266384754   -1.42746752416035   -1.19139458981016
H         8.09159795346462   -0.76469963656914    1.67697822898063
H         6.66203954757626    4.45848035056426   -0.28441214585626
H         3.06659348391025    3.26517043548598   -0.15747944605774
