28
 energy: -47.951200484075 gnorm: 0.116050521451 xtb: 6.4.1 (79825abcba525fcdf90b791dcacef51065a7a4e7)
C         1.04828495010146    0.14403624343689   -0.58228708971452
C         2.49100702022003   -0.01688469886327   -0.15568948762444
C         3.43574834417288   -0.93105683874703   -0.68093022781157
C         2.89086465240420   -2.04845921390774   -1.55542970296640
O         3.77338566207973   -3.09177978132721   -1.96743950179239
C         4.84589119748935   -0.89127302869425   -0.53161332610776
C         5.38283574496329    0.16340977420208    0.21932163509954
O         6.69286856822722    0.27443865184497    0.61920404793309
C         7.79356956467481   -0.35383235450278   -0.02904481104304
C         8.29926954152999   -1.50823708808605    0.80637081765020
O         9.21386067050694   -2.30037717508021    0.58945291179889
C         4.49370487376977    1.02577578976447    0.86533797542855
C         4.93704644176876    2.17200022680232    1.62039890438087
C         5.40619024513382    3.19425153389924    2.02149500848884
C         3.11063913829393    0.99991414945952    0.61267544347324
O         2.32405111466655    2.06816252767996    0.98657080381637
H         0.56094147597175    0.96266548796292   -0.05325428882046
H         0.46681198413790   -0.78371789111273   -0.48856880107666
H         1.05777089072047    0.39647906103831   -1.64910454002873
H         2.62681034244275   -1.59493518466156   -2.50311094172287
H         1.97813327178431   -2.36373100025962   -1.03229658638216
H         3.83907366286260   -3.82976541081125   -1.33763575112310
H         5.47135591345321   -1.60876829696613   -1.04865274479201
H         8.53907339698648    0.40314361085459   -0.28229213448364
H         7.41349652778865   -0.82870958486649   -0.94020038730007
H         7.72325991169374   -1.65028518751959    1.73643289026177
H         5.75686555891515    4.09308084995852    2.48033589428715
H         2.71070697448294    2.46674843993091    1.78421870880044
