28
 energy: -47.951211725007 gnorm: 0.117196938858 xtb: 6.4.1 (79825abcba525fcdf90b791dcacef51065a7a4e7)
C         1.35870104707316   -0.14708790838030    0.03868787165700
C         2.86735359093668   -0.08493756624972   -0.05843519465685
C         3.67997313979775   -1.24377461294465   -0.08794582494256
C         3.04817582470869   -2.61789036769693   -0.23918628242527
O         2.93998546447673   -3.28307940433030    1.01895981658981
C         5.07293169659803   -0.97841399750440   -0.04755569373505
C         5.60651354230821    0.31730561308806   -0.01641596983615
O         6.95950235438983    0.55258749878921   -0.06624637323729
C         7.71060182758052   -0.62064522356780   -0.35927930212446
C         7.77728987142955   -1.61634844518474    0.77669157470728
O         8.09626111540259   -2.79763068642624    0.65902321524021
C         4.76072818223464    1.42648548445663   -0.09344256184707
C         5.12595991113266    2.82050787098598   -0.15514001460317
C         5.43782061025473    3.97289521639585   -0.18193618529919
C         3.36692321649568    1.24108607222048   -0.07575659632248
O         2.53722529209033    2.33234889311666    0.06714149585310
H         1.11805229068243   -0.28067569425610    1.09309561624714
H         0.86201620131493   -0.95802901940206   -0.51203923187593
H         0.98206281941836    0.82409227023470   -0.30317400167307
H         3.70947758889189   -3.17860812689982   -0.88863529823978
H         2.11192245662513   -2.51467230905064   -0.80391523573028
H         2.22236259239610   -2.93781552375230    1.57699273120727
H         5.64103355621118   -1.85179855269299    0.24874657301352
H         8.71551164525247   -0.25259379783944   -0.57749294484881
H         7.33524921253956   -1.10158434519975   -1.26921136506001
H         7.54377577133664   -1.17961538566777    1.76244794243332
H         5.82889502614521    4.93357574165787    0.07410288342475
H         2.92022330228673    3.18477222284503   -0.19988406805661
