28
 energy: -47.957271904168 gnorm: 0.106925092397 xtb: 6.4.1 (79825abcba525fcdf90b791dcacef51065a7a4e7)
C         1.12551647991281    0.10898395803995   -0.74434057108246
C         2.60269765465829    0.11773045545143   -0.41694583044727
C         3.35374264113531   -1.08089615050113   -0.47482844443983
C         2.70757436337516   -2.23902376047443   -1.21742027734540
O         3.69209128881432   -3.17049432601320   -1.66485991019099
C         4.65662983613293   -1.13512607750615    0.08367422192346
C         5.25513815592407    0.02720520518418    0.58898833344366
O         6.59992808597034    0.19360234416354    0.81761771779495
C         7.44685277550725   -0.85898320835423    1.26625560197484
C         8.26053970653299   -1.50604620167612    0.16829153592718
O         9.11521002985299   -2.37249958702530    0.34095710564209
C         4.56811907802365    1.24286867809040    0.63061840077460
C         5.18354046972895    2.48018887379582    1.04389122252993
C         5.68329746014941    3.51925961091680    1.35461080946029
C         3.22091073393078    1.21751505262571    0.22841836291313
O         2.52336134429227    2.39117132621464    0.41717443367508
H         0.71163575181390   -0.79251964613583   -0.29320067479117
H         1.06493816879763    0.04533277671057   -1.83974025239439
H         0.69149078618459    1.00879267349061   -0.29280673457011
H         2.18068863664403   -1.87322916797146   -2.09040034528202
H         1.94282957724125   -2.76150584529715   -0.62723301046435
H         4.38088914550905   -2.63897082690789   -2.09917632842490
H         5.18005469784434   -2.07807281404575   -0.01738614025392
H         6.94347445316705   -1.56449632518061    1.93092415777498
H         8.23928050330755   -0.31494415879607    1.79184878314870
H         8.13086482119319   -0.98325986819554   -0.79444367653000
H         6.13530441100569    4.46740834401118    1.54981828793448
H         3.04880535720438    2.95039559734874    1.01365785166013
