28
 energy: -47.952320131351 gnorm: 0.113570159192 xtb: 6.4.1 (79825abcba525fcdf90b791dcacef51065a7a4e7)
C         0.99919248591848    0.01210207973260    0.00011724531352
C         2.50772751259310    0.08222658346811    0.09356596859461
C         3.24965116642133   -1.12291537078635    0.12971652500757
C         2.59748975116924   -2.49513079101602    0.08560354543333
O         3.46649746666612   -3.59728714526845    0.34481421611689
C         4.66672764827067   -1.05816515241981    0.13881649274506
C         5.36729799689975    0.15342890928093    0.06259578686841
O         6.71316279911152    0.36252705892689   -0.12001105277452
C         7.60556989551266   -0.71693452097044   -0.37469909521883
C         8.27561703317600   -1.37095801698879    0.81256335556654
O         9.16165364969414   -2.22292401957745    0.82301672255106
C         4.60599700544195    1.32473059753437    0.06885144755320
C         5.34576143067467    2.56246741007858    0.10428304515537
C         5.80627471053336    3.64569716349357   -0.09699426591557
C         3.20177565576950    1.31382470020790   -0.00477918875771
O         2.57923683951965    2.52794376624372   -0.19980064632852
H         0.59940954885210   -0.89109144711351   -0.46026114327569
H         0.54521595669576    0.89779861997239   -0.46578897948378
H         0.64328415862938    0.03402621518059    1.03682618606494
H         2.26574186001209   -2.59610955129857   -0.94067861872868
H         1.70790618892039   -2.52995805338318    0.72869861802824
H         3.91390010035532   -3.72489785546958   -0.50908089361256
H         5.18577574247222   -2.00886809532098    0.12941827949786
H         8.39101481714028   -0.25590539470212   -0.97756823957179
H         7.15188143918729   -1.47013347612677   -1.02817174126762
H         7.96675142590056   -0.92872229178343    1.77485739329350
H         6.44463256321083    4.48129881525606    0.09187450749388
H         3.38089060308030    3.03231432652072   -0.41792275122235
