28
 energy: -47.955844207186 gnorm: 0.117231252007 xtb: 6.4.1 (79825abcba525fcdf90b791dcacef51065a7a4e7)
C         1.22588612036716    0.13558125374618   -0.79454260783638
C         2.68485883154320    0.02923887362260   -0.40799638859794
C         3.29270174623903   -1.17133951826997    0.03162075893476
C         2.64527025632432   -2.50731419205181   -0.29432368646099
O         3.06209446892488   -2.84376325472175   -1.61726466238871
C         4.63063543074320   -1.08817281954925    0.49573057834034
C         5.34842770420612    0.10926646425176    0.62015727137241
O         6.64771735688171    0.17643670600480    1.06259813620586
C         7.31925302413180   -0.98085356088104    1.54861543627319
C         8.31286985833363   -1.48773391651656    0.52778248033302
O         9.03819260765175   -2.47834035445525    0.58796573707749
C         4.70095138556546    1.28457185704768    0.23157314545819
C         5.40732247200101    2.52313580754409    0.44951451004501
C         5.87151657299082    3.61697231257914    0.56790903153436
C         3.37844117178339    1.25426465917097   -0.24531910656576
O         2.77808564416543    2.38747420838372   -0.75037595242051
H         0.67132013393068    0.85006893616600   -0.18667985359200
H         0.68782629259034   -0.81872402878949   -0.70843386880553
H         1.10376998010863    0.52379884929455   -1.81252668334166
H         1.58424569995963   -2.37654276697524   -0.11929746099066
H         3.13169570278169   -3.33594525992042    0.23756349133289
H         2.93135432885228   -2.12568479438878   -2.25980711936872
H         5.13953147027979   -2.03759067457468    0.60959847601053
H         6.65501261040344   -1.76623199950799    1.91588667784247
H         7.96277964558393   -0.53067889754356    2.31241164210361
H         8.40017705098448   -0.79837520725336   -0.32903852809653
H         6.47251872612995    4.46918994085873    0.80012401844119
H         3.26521894126591    3.14021639150378   -0.37528126818723
