28
 energy: -47.950508842171 gnorm: 0.130386540084 xtb: 6.4.1 (79825abcba525fcdf90b791dcacef51065a7a4e7)
C         1.07633764823561   -0.02742728272475    0.17728391863749
C         2.54692083836557    0.05931465560287   -0.16795362770068
C         3.33865820892594   -1.11173083793687   -0.24495429286627
C         2.70574271990480   -2.47725777104576   -0.03284625303392
O         3.50394835607102   -3.29390793403748    0.82334501766317
C         4.75307448123650   -1.02505138029053   -0.17942226433734
C         5.42042731868586    0.20526487957214   -0.25379079140109
O         6.79359373751672    0.24689297961464   -0.22061795702712
C         7.63672855324144   -0.87395395280097   -0.46417402615240
C         8.12211619841434   -1.47235218754061    0.83683343539050
O         8.96325840217025   -2.34400444837224    1.04592278908367
C         4.61727663753563    1.34786353086704   -0.22243374005254
C         5.27819994554043    2.61367323044895   -0.01895057266473
C         5.83998873644851    3.66669159713967   -0.05790446818969
C         3.21350649625489    1.30972381017941   -0.14927124953344
O         2.44189665468772    2.45057278839128   -0.09678400818247
H         0.89441523203422   -0.72271033812422    0.99644136090708
H         0.46763083002223   -0.26172586269339   -0.70713784149806
H         0.81266011045227    0.99574419131019    0.46970677330848
H         2.62886184289699   -2.97079661260440   -0.99410438494564
H         1.67834090933735   -2.29805703959891    0.31135681025265
H         3.74101387416507   -2.72844060804927    1.57808809464880
H         5.28018393086103   -1.96682643691605   -0.27189231379481
H         8.46405996742494   -0.49322223236959   -1.06707440894928
H         7.18693860501375   -1.63783838433321   -1.10786491194020
H         7.53853695775149   -1.06657228683172    1.68049104224519
H         6.31443912034315    4.50735529398207    0.39989861541254
H         3.10015996953061    3.07282184310906    0.25551017410466
