28
 energy: -47.945658850935 gnorm: 0.114535790943 xtb: 6.4.1 (79825abcba525fcdf90b791dcacef51065a7a4e7)
C         1.06846893497509   -0.09602452573475    0.18115013998764
C         2.58138886848647   -0.11545118977549    0.17625863532199
C         3.28323908364813   -1.20153165295606   -0.39990124840655
C         2.55374414636027   -2.32528856095426   -1.11770566128163
O         2.29817639994620   -3.41723066027512   -0.23483489330577
C         4.69786832947289   -1.10790899243124   -0.35050438500556
C         5.38478835546814    0.02809603268825    0.09916442310833
O         6.74567733904482    0.19610147211370    0.18957852511812
C         7.55042222299305   -0.89927158954955   -0.23354942423214
C         8.95577141430252   -0.75670492951851    0.30586732685799
O         9.71675863078882   -1.71235044346127    0.44245553581954
C         4.66652461260843    1.18437364137071    0.41330651914941
C         5.27313397049645    2.46398381776591    0.68739060866159
C         5.57993544566498    3.61439077185423    0.77908804837210
C         3.26255339105503    1.10561992276550    0.40692885994349
O         2.62871289930632    2.28541439619503    0.73251185927725
H         0.82562431618880    0.89209822247533   -0.20894361614641
H         0.66945851653138   -0.39681098513762    1.15989416055960
H         0.70995082753780   -0.86807537382271   -0.50973269134081
H         3.22256466647925   -2.58593814258132   -1.92903134191163
H         1.59723155467264   -2.01754949789433   -1.56101532295306
H         3.12689147232881   -3.80087198926887    0.09929251851608
H         5.32561591085247   -1.88585067087086   -0.76772741307214
H         7.65946027560853   -0.95920277678279   -1.31864930037787
H         7.09864375629305   -1.85045693410935    0.06862774246830
H         9.22957985497631    0.24066582913320    0.68961297715648
H         5.67749950867679    4.60776472551907    1.15999711436201
H         3.29074964138131    2.84676388808497    1.16978724826989
