28
 energy: -47.948800478071 gnorm: 0.118774295370 xtb: 6.4.1 (79825abcba525fcdf90b791dcacef51065a7a4e7)
C         1.23169726245063   -0.15828015622683   -0.70536433135180
C         2.67305262001313   -0.10162532512519   -0.24862262191393
C         3.63010522140148   -1.14057132277487   -0.34225075469115
C         3.22135269667663   -2.42062465767772   -1.05261718461174
O         4.38391072490665   -2.98232593811379   -1.66094581368475
C         4.94994261845572   -1.02850840014946    0.16554083507631
C         5.33440997424632    0.13736397749805    0.84192462368562
O         6.62227849388518    0.41033848549943    1.23600450832708
C         7.53164065663454   -0.66882542936411    1.04903007887176
C         7.71938500861463   -1.07655498553099   -0.39485727870761
O         7.94634303574967   -2.25143517618662   -0.67621616451386
C         4.47265973848047    1.23687418653171    0.83646625336077
C         4.96844567773501    2.49639706698880    1.33476094928022
C         5.36848202563209    3.49879595006729    1.84577866999256
C         3.19235541457688    1.11120333879323    0.26865848481323
O         2.45049419843272    2.27186298948239    0.22192352235756
H         0.70137958217150   -1.08361087109588   -0.48162469091259
H         1.15210055652896   -0.04869495844111   -1.79590415683654
H         0.68130785958249    0.73270299237297   -0.38111541365771
H         2.58675957666193   -2.08740428340220   -1.86487589251036
H         2.70285916521375   -3.07391792845174   -0.33811351942471
H         4.16372370447530   -3.90571434753870   -1.87180593376072
H         5.55547760013232   -1.92562980822858    0.12269344174881
H         7.43245230912338   -1.52652694503080    1.71793408281410
H         8.53815172806738   -0.23681751341277    1.07077883502264
H         7.93423358781607   -0.29541935327828   -1.14362121257842
H         5.68405181350912    4.39194642692395    2.33984364491379
H         2.94041429642121    2.92155355003664    0.75342717973390
