28
 energy: -47.950421831882 gnorm: 0.119048052992 xtb: 6.4.1 (79825abcba525fcdf90b791dcacef51065a7a4e7)
C         1.35027905003960    0.14332852961370   -1.03026110966224
C         2.68317704743255    0.12051473567018   -0.31458625825027
C         3.39144303553811   -1.09152134334458   -0.13168591599269
C         2.81252008858010   -2.42994812193040   -0.56028551305510
O         3.64353407762236   -3.56988422631552   -0.34331859940234
C         4.70494487066265   -1.13718320276261    0.40217650373814
C         5.34493263217086    0.06569664676423    0.73090787577074
O         6.50617323012913    0.11464936030323    1.46408129939118
C         7.40121925188216   -0.97127769407249    1.24925861490344
C         7.96300800986347   -1.16176553885278   -0.14157200176147
O         8.08643496177708   -2.22487097100760   -0.74621144617528
C         4.70600763674225    1.28473451216530    0.49155981505238
C         5.41525860612088    2.52210570555782    0.70690788024228
C         5.78930713760878    3.63590371288333    0.92024661186885
C         3.41546839714639    1.30810509902086   -0.06641892873932
O         2.83835084110933    2.48772225057359   -0.48488248588261
H         1.49842055717577   -0.12046723356427   -2.07716086438309
H         0.90433028661960    1.14745028824221   -1.00810581404641
H         0.54653983424977   -0.44553399996464   -0.57291985931927
H         2.67701117621941   -2.39095100529399   -1.63435488368735
H         1.77307327421759   -2.49489072660618   -0.21175157524667
H         3.79284016469725   -3.57051693794787    0.61756524405157
H         5.16432523196960   -2.09922277570937    0.59397034156288
H         7.09457686047943   -1.95482901503256    1.61191551499299
H         8.25434690785301   -0.65182881313439    1.85777648651785
H         8.11757528180982   -0.12740249793019   -0.49254532652895
H         6.08443696509242    4.66267691840219    0.92636535959876
H         3.42557324834496    3.26095504618116   -0.52843185036718
