28
 energy: -47.949825608798 gnorm: 0.123815718527 xtb: 6.4.1 (79825abcba525fcdf90b791dcacef51065a7a4e7)
C         1.14458851827427   -0.00175278945367   -0.52173326880031
C         2.63024599536934    0.02872865488142   -0.23674064320062
C         3.33366587590779   -1.19395628097089   -0.35660199469851
C         2.51968793767960   -2.34993141543439   -0.91463160205153
O         3.13793941043893   -3.63484348043206   -0.97691575275233
C         4.68668620430333   -1.18548100352045    0.06959669873797
C         5.23593006382865   -0.02525673311428    0.63242829716904
O         6.53122208984564    0.10656812577044    1.07204192810836
C         7.37309751656974   -1.04038045652410    1.02462410374219
C         8.42978879124237   -0.94737701770320   -0.05289895576433
O         9.63111155315518   -1.12138501682231    0.14090782616626
C         4.64719310814717    1.22744279008825    0.44348737731832
C         5.30537646186647    2.45598010232092    0.81495735166809
C         5.85166589730326    3.44261310817409    1.20750656122948
C         3.31441901041144    1.24781501303250   -0.00448158143310
O         2.55186274933508    2.39118887923167   -0.10877543748034
H         0.70125120649828    0.89489110783488   -0.08928100399511
H         0.65648002177724   -0.84183322945324   -0.00827770401086
H         0.94470297188373   -0.04215928748678   -1.59891937832935
H         2.22978282764653   -2.06107963294480   -1.91764113771006
H         1.68801030720942   -2.46297826968242   -0.20634080068313
H         4.04296416857163   -3.58821321411922   -1.32954342172046
H         5.17875264463595   -2.14960479366746    0.02871551400429
H         6.83137700800882   -1.98330678152900    0.92288118510171
H         7.91393442097378   -1.04025633259185    1.97733802268053
H         8.00657850206849   -0.67335845153628   -1.03411610458914
H         6.35419990062153    4.23404990213821    1.71984399472364
H         3.19157787772076    3.08621757155842    0.11995002964649
