28
 energy: -47.954172768414 gnorm: 0.111278580687 xtb: 6.4.1 (79825abcba525fcdf90b791dcacef51065a7a4e7)
C         1.47356646002809    0.24002009349490   -1.21687103694811
C         2.79255571465872    0.04505691048144   -0.50161951428541
C         3.67630285093435   -1.04870835629138   -0.66530594081573
C         3.19961012521516   -2.28421691005471   -1.41130747514624
O         3.56220565461150   -3.48978796179722   -0.73882243015612
C         4.98133490413042   -1.02084022768144   -0.10988190189900
C         5.36000892382073   -0.02295591773314    0.79863417275375
O         6.60944813123836    0.06194949066025    1.36441866474359
C         7.64410524987970   -0.76840383188229    0.84819028795669
C         7.84966534149673   -0.61770099340212   -0.64222433062942
O         8.34111560863612   -1.52083722566469   -1.31589918639633
C         4.43857253934738    0.97094850370909    1.13727106066918
C         4.76304955221526    2.07508034852689    2.00681503706726
C         5.06846944442902    2.94836122755350    2.76184544134074
C         3.25990138371260    1.05560454930210    0.37507314449631
O         2.47321500474157    2.18604354011852    0.42897385277060
H         1.54170258271470    1.07889600724522   -1.90909779038663
H         0.61379449416323    0.52040468912674   -0.59253274196580
H         1.18753642589706   -0.69660027261129   -1.70966504854393
H         3.67266910414201   -2.38168550228438   -2.38095871477540
H         2.10838549185633   -2.29187560796494   -1.53505427574383
H         4.53447797943968   -3.48981361588659   -0.75546557904977
H         5.59441884693254   -1.81710570782028   -0.51414010582547
H         7.40098761660805   -1.81620974534003    1.03771434726498
H         8.53723569249755   -0.39872929362258    1.36377455064917
H         7.66102369513007    0.40173831088960   -1.01923633360102
H         5.53658466714198    3.84698094421667    3.10059758386778
H         2.71078729647336    2.69176311839689    1.22422398919424
