28
 energy: -47.955752326185 gnorm: 0.111185295972 xtb: 6.4.1 (79825abcba525fcdf90b791dcacef51065a7a4e7)
C         1.33858876750425    0.10272432676894   -1.08985209617820
C         2.74925183729094    0.10466903948713   -0.54271961955285
C         3.52535297265833   -1.07858993861702   -0.50161110375249
C         3.02043761062518   -2.37962847621365   -1.10376957948286
O         3.83808123518133   -3.50561825579985   -0.78640680204485
C         4.84698640974828   -1.11333713510503    0.01264451391986
C         5.39955648890320    0.02154058355103    0.62197811988948
O         6.58297849090052    0.24750481918903    1.28294096825444
C         7.63556859937456   -0.67247516078486    1.01426898656363
C         7.85759772804918   -0.85402502576912   -0.47033356809966
O         8.64646470094571   -1.62824829934495   -1.00818433927250
C         4.54017864325396    1.11450227621303    0.75788404385710
C         5.01759161613194    2.20142636940164    1.57713496124667
C         5.25299677428776    3.11672393760445    2.30705720987945
C         3.30689244526616    1.24109523486375    0.09428976795785
O         2.56287482759778    2.38283538767958    0.30054264596083
H         0.77876913189430   -0.75186501659926   -0.71062625883993
H         1.38991939370088   -0.03880008351653   -2.17840970615795
H         0.91319143004382    1.08181076358581   -0.84016492312738
H         3.06824170283841   -2.19476614385287   -2.17009464288795
H         2.01705780780881   -2.48936907927938   -0.67095425851500
H         3.41073010549783   -4.29768470130334   -1.15463529866269
H         5.30372441466895   -2.07895476225081    0.19238968179689
H         7.35517743239588   -1.60486319661332    1.50919941612444
H         8.56833321346825   -0.31604477095803    1.46490846009397
H         7.17479583466683   -0.24785167034684   -1.08945847795395
H         5.51327524178994    3.93841072039395    2.93831644121877
H         3.07729574887858    2.91359096868062    0.93164112843415
