28
 energy: -47.948081219129 gnorm: 0.116000055741 xtb: 6.4.1 (79825abcba525fcdf90b791dcacef51065a7a4e7)
C         0.97827888243682    0.13735628866311    0.36437814173637
C         2.43341417898075   -0.02785309516279   -0.01590486596336
C         3.19296374895529   -1.22249587922578   -0.02205008050587
C         2.47420180211792   -2.52610125321132   -0.32901899646944
O         3.34804300614990   -3.49540670447693   -0.90691319605918
C         4.60244388335995   -1.21133307096146    0.13801955153141
C         5.28096634090268    0.00670013726586    0.28144527743278
O         6.64170171785400    0.15992358145710    0.39694921674677
C         7.37515897614721   -1.06011783480772    0.39119370248060
C         8.84930685631519   -0.77107674148506    0.56337182905318
O         9.75387375910338   -1.59803694559626    0.65777399933037
C         4.58054727401824    1.20877540103497    0.15497734832709
C         5.29865069463071    2.44895960411098   -0.00863743766509
C         5.87115033602515    3.49673745099130    0.01079065151940
C         3.17890337914616    1.17568670715664    0.04691479767621
O         2.52126943881539    2.36996673501676   -0.15528773006002
H         0.89356702577408    0.23112473186307    1.44676651429362
H         0.53843071728950   -0.84283725486667    0.13334594042814
H         0.53048138157647    0.97531289146367   -0.18263461753423
H         1.73981477553733   -2.35231415851643   -1.10618190805483
H         1.87509250783839   -2.97288533211765    0.47571397812257
H         4.01370956113920   -2.96265294762770   -1.37451552770689
H         5.04842632247178   -2.19416155334629    0.23012365305367
H         7.10577018332872   -1.63257570435028   -0.49911211637099
H         7.07908036007156   -1.55460004584208    1.32285521864389
H         8.92929864342486    0.32591854126839    0.64812370532160
H         6.25665493650469    4.49161397403789   -0.04406524797659
H         3.14837191352086    3.09033480265660   -0.33536547741319
