28
 energy: -47.951626467285 gnorm: 0.129193898183 xtb: 6.4.1 (79825abcba525fcdf90b791dcacef51065a7a4e7)
C         1.57101648230920   -0.04515662178419   -1.15944798971171
C         2.83129571601574   -0.06359534844644   -0.32237911430921
C         3.48646539218116   -1.26434883035853    0.04240638759345
C         2.86054106188964   -2.62024260531612   -0.24044767866123
O         2.80207848796279   -2.87781273162820   -1.64307128151576
C         4.73865952754082   -1.16395070038406    0.70142930815509
C         5.45975016341696    0.03255944119523    0.81527283337356
O         6.65602332430202    0.37283013988210    1.39970908607406
C         7.57193214028899   -0.71550781625223    1.45561320072744
C         7.90708799907195   -1.16383816445391    0.05098781156011
O         8.18036810247755   -2.28992587575507   -0.35920809581594
C         4.70418359313347    1.16156121595243    0.48963481468115
C         5.34432881259054    2.44216887404923    0.66501252432733
C         5.73881916827274    3.56766932502018    0.72499438149678
C         3.38647860131533    1.19971093953539    0.00016964445309
O         2.68600853539927    2.36632333497200   -0.21898839401240
H         1.89893371310364    0.11823882140847   -2.18575468318681
H         0.79640041966574    0.69070805036921   -0.90235890241173
H         1.16236148598049   -1.05796998115510   -1.25498344017305
H         1.84553744659386   -2.59984079370377    0.13752041071761
H         3.45003168633326   -3.44638774267150    0.17922855296451
H         2.83137515579694   -2.02715051275914   -2.11329033984268
H         5.26266281609889   -2.07990511723333    0.94593573657121
H         7.20192576370782   -1.59919003720223    1.98013564921436
H         8.47858039276163   -0.29441052252809    1.90375871312450
H         8.04226521292504   -0.34532159192671   -0.67615588694760
H         6.27069363407080    4.48587260941402    0.84914975176746
H         3.22157834392692    3.08317959746574    0.16035016619785
