28
 energy: -47.957617925938 gnorm: 0.120213620849 xtb: 6.4.1 (79825abcba525fcdf90b791dcacef51065a7a4e7)
C         1.24953046884171    0.07360287216815   -0.69904015292600
C         2.71900773046173    0.08141371248158   -0.33861871277486
C         3.57358712179525   -0.95004592087573   -0.79677784937280
C         3.14720408102844   -2.11481699692675   -1.67526602506391
O         4.26872397968711   -2.79614313944863   -2.23660462107244
C         4.82941878077411   -1.05888369772619   -0.14606873847326
C         5.27632652407234   -0.04726698520160    0.71501991625090
O         6.40217993765303   -0.18838279221338    1.49023587288319
C         7.42636325953238   -1.13600475891395    1.20818116451212
C         8.00298693771627   -1.06562516877192   -0.18783240109643
O         8.62306138662938   -1.91396700391633   -0.82567253556232
C         4.54869117420850    1.12106864654801    0.95398561182171
C         5.02502893269344    2.25050409675893    1.71423366142171
C         5.17414858850726    3.33264066607878    2.19663960342066
C         3.22298330223608    1.11858973316634    0.48508211019888
O         2.33675838186757    2.12415538734075    0.80619915385203
H         0.80442543494447    0.76192613376131    0.01903074242459
H         0.78529256066881   -0.92235933641624   -0.71185056424565
H         1.17899286557699    0.63258029407261   -1.63951105707792
H         2.51763096138102   -1.66674657773669   -2.43446233721749
H         2.54595068652624   -2.79977350020856   -1.06250826486046
H         4.77571634895282   -2.13585169060587   -2.73916248679762
H         5.33215777209511   -2.01727764213219   -0.19156477256554
H         7.06088023505076   -2.14896755588213    1.39053059448241
H         8.25526637607578   -0.93637251576166    1.89610192495016
H         7.92980614769122   -0.03217415161550   -0.56678329836973
H         5.44678047562164    4.18429703419925    2.78123823082819
H         2.82427660328002    2.67642186373765    1.44018920847237
