28
 energy: -47.947525173237 gnorm: 0.120821143805 xtb: 6.4.1 (79825abcba525fcdf90b791dcacef51065a7a4e7)
C         1.07828865994631   -0.04379150592336   -0.55819802153898
C         2.56833589323925    0.04453144744386   -0.31063724461201
C         3.46600405264871   -1.02510730807245   -0.54342367522495
C         2.98771743482227   -2.26504623083126   -1.28100690524341
O         4.08458585771260   -3.09827277644278   -1.65480685843159
C         4.83762152468266   -0.91495343630632   -0.19858632460873
C         5.36616049619701    0.12825016578979    0.57403348879864
O         6.63911304980241    0.22422729112899    1.08275692772569
C         7.57634913426945   -0.84219361022030    1.18681799549230
C         8.13347135972724   -1.26261552809122   -0.15451054927560
O         8.98477050376960   -2.13012993331297   -0.33815355322288
C         4.54288965585265    1.25201320826446    0.67866477579802
C         5.06098872035403    2.45162608558804    1.28940325988179
C         5.36534826216612    3.47093113070587    1.83194746096064
C         3.19316447490002    1.16341591862901    0.29425555960601
O         2.29636589683586    2.16978071442385    0.58175383734041
H         0.84797746068824   -0.94502099415391    0.00949500745616
H         0.86113549287028   -0.16683342322113   -1.62839746711150
H         0.62545288492309    0.92525045763523   -0.31775204948705
H         2.48081451474767   -1.83699256399226   -2.13735259729139
H         2.30574920320834   -2.77826710441851   -0.58987247659763
H         3.77173022718804   -3.95039818533867   -2.00351032860030
H         5.39190531175378   -1.81017338687941   -0.45292086743394
H         7.07974108468113   -1.59083491761947    1.80797773468292
H         8.47882992545588   -0.45565126367405    1.67290627661297
H         7.70849505848829   -0.62203178283264   -0.94572975036238
H         5.80999224930546    4.33739598365722    2.27118845590947
H         2.65582474825312    3.07234556760636    0.60971237715608
