28
 energy: -47.950711249518 gnorm: 0.114236703322 xtb: 6.4.1 (79825abcba525fcdf90b791dcacef51065a7a4e7)
C         0.94776797214959    0.06214799979705    0.06901644546333
C         2.45783447599812   -0.02878932972440    0.04149227764624
C         3.19134908423384   -1.19951311615617   -0.26751714037100
C         2.42958743286880   -2.47345435566209   -0.59466927699453
O         2.91667325994587   -3.67377976601248    0.00456315901691
C         4.60782060146521   -1.13964944758119   -0.31656729618218
C         5.31291847757255    0.05479801757904   -0.11482288333397
O         6.68158425393055    0.17789869234192   -0.11924662951258
C         7.54486622678564   -0.95400772415398   -0.12432858460572
C         8.84395179456160   -0.59374747500644    0.56042777511752
O         9.80242659120964   -1.36130899382790    0.50393344442093
C         4.61061322777346    1.22353771852623    0.18911922866910
C         5.34902807629865    2.44533954611060    0.39513623097129
C         5.89196289482339    3.32844577245771    0.98785615000145
C         3.20566895568853    1.16483536352365    0.19709493502537
O         2.47625731448747    2.32972933730206    0.30031186490272
H         0.72315558372851    0.94869901407777    0.66156161793392
H         0.43744764774831   -0.80450441378976    0.51185774677933
H         0.47823854021587    0.16737039855711   -0.91606587814083
H         2.32208299570870   -2.48658436665416   -1.67252773123593
H         1.41307156388454   -2.29137657441778   -0.22092297604171
H         3.66148184965390   -4.05316076373014   -0.49234798973841
H         5.28781238227030   -1.96403772623287   -0.49357145857836
H         7.77048216385136   -1.24319700366196   -1.15310931625057
H         7.12038503087059   -1.84673606827204    0.34792155879338
H         8.85979041585634    0.38782795822059    1.06365637428776
H         6.59157738631015    4.04869643987152    1.35279561603525
H         3.21200797274424    2.89017029747776    0.59896311514756
