28
 energy: -47.950341943286 gnorm: 0.128653965078 xtb: 6.4.1 (79825abcba525fcdf90b791dcacef51065a7a4e7)
C         1.26533593717270   -0.23084234027777   -0.34869459210043
C         2.76762629868999   -0.05115461177952   -0.33588700383943
C         3.63066483566532   -1.15491405616711   -0.13339183899066
C         2.95667028140467   -2.48442558463864   -0.43065617181759
O         2.60453051446228   -2.57440883935565   -1.81087855230483
C         5.02479421393166   -1.06462630331169    0.11284496364794
C         5.54744284374074    0.20112267893407    0.41165343861330
O         6.77060012284348    0.38122399168916    1.01154438116529
C         7.39287521901571   -0.79149533293965    1.52535059319018
C         8.01535695360595   -1.55998259700316    0.38156483997345
O         8.45717822971980   -2.70369267747271    0.46952757492975
C         4.74208900481911    1.32033383049350    0.18729313273259
C         5.27108820484783    2.65758216174092    0.29876487925095
C         5.72640216803774    3.70623268166878    0.64371850598014
C         3.37541862776921    1.21157323205759   -0.12537476276678
O         2.61409522190837    2.33034485350059   -0.38692739970377
H         0.99374577588613   -0.94500796481893    0.42831213647617
H         1.13233651855424   -0.74587491612772   -1.31029444140234
H         0.74394512229009    0.73332839540924   -0.32764131560008
H         2.05703053222359   -2.56406765201504    0.16751931799658
H         3.65201477388012   -3.26499003583853   -0.09396891844881
H         3.35351612793694   -2.07080693151566   -2.17281243999233
H         5.53270053730900   -1.98221894902417    0.38375129324598
H         6.71941923011850   -1.43607554065550    2.09446936065090
H         8.13274604124623   -0.34701644036499    2.20003427105610
H         8.22776346655345   -0.91023652410397   -0.48428372122508
H         6.04528242544418    4.69943510572204    0.87451408108400
H         3.03823410137086    3.13494859459110   -0.04438587955198
