28
 energy: -47.953930025779 gnorm: 0.115088057515 xtb: 6.4.1 (79825abcba525fcdf90b791dcacef51065a7a4e7)
C         1.44064129584685    0.15150486803038   -1.02879231928637
C         2.85499031662719    0.12900796617785   -0.49172735338327
C         3.55711750168641   -1.06269432311394   -0.19008555599745
C         2.77305282162929   -2.36418587323139   -0.15011123981920
O         2.60996960739362   -3.14810836096059   -1.33162831781658
C         4.91441628543304   -0.99576383183522    0.21690519412053
C         5.59680455739894    0.19929961327695    0.48287170009642
O         6.90031082333969    0.22802817917648    0.91699775043608
C         7.58289812536105   -0.93717261113488    1.36741468399612
C         8.07871953141957   -1.89431949270540    0.30706898298504
O         8.86117128468016   -2.80409324441873    0.57370957021286
C         4.80708177994559    1.34358570983804    0.34680841299643
C         5.28273274565916    2.66146681301022    0.68951058818566
C         5.19685746526220    3.84551791936341    0.81842977006257
C         3.49663076869061    1.34906880944648   -0.16315834065545
O         2.74472882685714    2.48788431067285   -0.35658992136424
H         0.69461143987800   -0.03318290912170   -0.25622317241450
H         1.29264395262112   -0.67002132037444   -1.74350427062421
H         1.26555956694500    1.11170101677789   -1.52807838326967
H         1.76416887676664   -2.22918676223123    0.22061355441675
H         3.27464689623516   -3.08945875944804    0.50450754397089
H         2.32064446651300   -2.55817938844588   -2.04847226028447
H         5.38242534294212   -1.95503937562819    0.40154886999488
H         6.96517565505804   -1.56865706412779    2.00973011870663
H         8.36827506546735   -0.49688316919643    1.99151135148752
H         7.67562841165583   -1.73383578362990   -0.70720057805905
H         5.09837770013749    4.90478146572386    0.91673926169285
H         3.24939446238725    3.29878261117720   -0.17666714775171
