28
 energy: -47.946636993072 gnorm: 0.124025731980 xtb: 6.4.1 (79825abcba525fcdf90b791dcacef51065a7a4e7)
C         1.38013384197841   -0.05657601473959   -1.00745665118131
C         2.72794494379657    0.00130427410681   -0.32234123166881
C         3.48958228339444   -1.15434119983169   -0.02482348553506
C         2.73292057023733   -2.47142826957310   -0.07941595127438
O         2.97408798845839   -3.16141366049396   -1.30533260928485
C         4.81098216519754   -1.10511178683457    0.48884953522572
C         5.45620887757980    0.12068098034320    0.70258573619805
O         6.64599929503691    0.17202652763183    1.38828374168044
C         7.41508359002128   -1.02501342470210    1.43409240781886
C         8.04090491131286   -1.19931452634809    0.06871010441369
O         8.70223461176347   -2.13324322709698   -0.38010660643054
C         4.79228750049353    1.28260568818226    0.30170502886727
C         5.40270837823376    2.56141995906507    0.57099969650884
C         5.72148353808794    3.71176936346129    0.53859026450875
C         3.43405390079473    1.20006911944077   -0.05293168877976
O         2.75160771272413    2.37825075799730   -0.26700709775799
H         0.54867268438802   -0.49650683958927   -0.45730538498322
H         1.64928754985606   -0.63014686082854   -1.90533995938108
H         1.00250206495472    0.93055141702262   -1.29881639669468
H         1.67868189271994   -2.26647404533863    0.06229864970174
H         2.89977454131708   -3.17363011918909    0.74836145910356
H         2.77285319105187   -2.58953478355855   -2.06562832448264
H         5.37535364769305   -2.01998846471507    0.62234421310418
H         6.76670314560949   -1.79827761488136    1.85192978944822
H         8.23195706941400   -0.78032359506081    2.12185180678374
H         7.77436468135881   -0.30672554933188   -0.52223950530020
H         5.96620847598446    4.72879017796452    0.75580131782709
H         3.38761322988672    3.09477719653247   -0.10359807013460
