28
 energy: -47.947901293786 gnorm: 0.114205341287 xtb: 6.4.1 (79825abcba525fcdf90b791dcacef51065a7a4e7)
C         1.52559529734086    0.05706890820074   -1.24500044920985
C         2.88279452127797    0.06749745244939   -0.57624821527974
C         3.56245435875354   -1.10814917445083   -0.17619544712617
C         2.96353178402040   -2.49538664866776   -0.01157596481027
O         3.04912866748415   -3.47423058831535   -1.04678170551234
C         4.83276742549427   -1.02774522112134    0.45008011721674
C         5.42581515092969    0.20886563623504    0.73931457612987
O         6.73238532856088    0.42026127831792    1.10891655231089
C         7.55591214869609   -0.73334714865318    1.24114706144093
C         7.67676684368110   -1.51743514725129   -0.04606006492386
O         7.91040852935459   -2.72080585506316   -0.13731099760888
C         4.71230930649193    1.36603731408744    0.41771064097211
C         5.30990513852702    2.64423043606659    0.71704451918756
C         5.84028465406018    3.65512479194982    1.06741845320420
C         3.45906104130830    1.31151681980174   -0.21772173665599
O         2.61970499951888    2.40395984912021   -0.25922737518573
H         1.76660496562724    0.17051684857768   -2.30168257576661
H         0.94013573088242    0.97590150388318   -1.10145457101174
H         0.82332368110446   -0.75423195114159   -1.02022874979928
H         1.94775902712213   -2.34458097851810    0.33334693493020
H         3.46820056052702   -2.95225058121406    0.85024066546962
H         2.87734550674559   -3.02930948102683   -1.89420498929373
H         5.39722176500941   -1.92504047920805    0.67276342780538
H         7.39960794388129   -1.27014468215334    2.17941151671322
H         8.55293744538520   -0.31907121773146    1.42684680602856
H         7.56696988669704   -0.83408147362417   -0.90510174129402
H         6.26861928929603    4.59124264660091    1.35310197314185
H         3.06471144463944    3.20105988949260    0.07426393187503
