28
 energy: -47.953094237754 gnorm: 0.118400855897 xtb: 6.4.1 (79825abcba525fcdf90b791dcacef51065a7a4e7)
C         1.34551420252731    0.07898885921403   -0.90978893882613
C         2.80704662296650    0.00352154374944   -0.52565912605453
C         3.57759457498340   -1.17589049626952   -0.38649088390030
C         2.96877369230402   -2.54973129484021   -0.61482009769869
O         2.63705372892966   -3.11226404370602    0.65428667113337
C         4.93522846727762   -1.15419988465748    0.02428994517533
C         5.47976285613323    0.07949479969918    0.40645259308969
O         6.79199749422990    0.38759638258066    0.67390918341646
C         7.68937533054285   -0.70841374943601    0.81521927334495
C         8.09969484565915   -1.35266095436878   -0.48972726424454
O         8.86572863442275   -2.31212705438112   -0.55000385748815
C         4.69876292489415    1.23544121784360    0.47988917385294
C         5.02322096340759    2.52245496551280    1.04453222504524
C         5.36700709603925    3.57009088631374    1.50305352130777
C         3.41132741974205    1.20720995834279   -0.08499207515811
O         2.59107839485597    2.31481891100262   -0.09317766584094
H         1.04539861952434   -0.95499815315726   -1.07811810230926
H         1.22625902277659    0.66060952082563   -1.83451445169696
H         0.98023867852937    0.68665378074217   -0.07358682636003
H         3.65770215418859   -3.20439991718625   -1.13471914601568
H         2.11180876992819   -2.43505993020776   -1.29202370834692
H         1.96548361511425   -2.56109893401118    1.09109449208804
H         5.46505428060870   -2.09896329339174    0.03077347810971
H         7.28124821462064   -1.51160570307631    1.43266378732203
H         8.59216687949452   -0.36818900570411    1.33424039556679
H         7.75117494707250   -0.90237735441516   -1.43458639435200
H         5.58536722686268    4.51036677782929    1.96087702808070
H         3.14728636733757    3.11153079692491   -0.11550537656642
