28
 energy: -47.952732580677 gnorm: 0.130903292537 xtb: 6.4.1 (79825abcba525fcdf90b791dcacef51065a7a4e7)
C         1.39559417049185    0.09636920661223   -1.00587765979415
C         2.76025227237086   -0.00182273996836   -0.35981678410307
C         3.62704580046746   -1.10373531271388   -0.55624072472367
C         3.14628290283306   -2.30257047798454   -1.35742541964684
O         3.65194504654181   -3.42772815714035   -0.63948446450030
C         4.92968522134393   -1.05264745895382    0.00313547090988
C         5.37357473345809    0.10076199579641    0.66432932310091
O         6.68106230849144    0.24986338752412    1.06013782356517
C         7.65173505277688   -0.79069343513845    1.02102712358473
C         8.00386232264824   -0.93418547209004   -0.44243399738922
O         8.59848356902912   -1.85789436013728   -0.99398063480549
C         4.45189488525853    1.11629396325096    0.93035007270456
C         4.97695384562583    2.31883486553620    1.52927216827080
C         5.19376238146660    3.35454450651091    2.08269002503851
C         3.17704703450851    1.15874029613186    0.33845543222224
O         2.32940845797533    2.24065673756983    0.44159950528147
H         0.63224801114680    0.03895615142807   -0.23028782432720
H         1.25117476616508   -0.72096526389233   -1.72610614048874
H         1.25565335198359    1.13997227251651   -1.31120705878355
H         3.52246746678140   -2.31509892122862   -2.37321903143136
H         2.04871817995635   -2.28296754153398   -1.32410073837623
H         3.36616112057179   -4.21628021067792   -1.13152478353767
H         5.59458975178756   -1.90384047348511   -0.07876538965912
H         7.39928264571134   -1.73182530090763    1.51444517628125
H         8.53940089582091   -0.36029215080528    1.49744340007180
H         7.58254944164279   -0.13517996719670   -1.07573161754637
H         5.45663470276713    4.24593179240281    2.60969014058253
H         2.80897553970166    2.85525499797355    1.02203042970553
