28
 energy: -47.947840448882 gnorm: 0.115546713334 xtb: 6.4.1 (79825abcba525fcdf90b791dcacef51065a7a4e7)
C         0.98702399692433   -0.08005000217897    0.26911192395304
C         2.44690509372597    0.02024665918422   -0.11561630332396
C         3.25563050596950   -1.14143410200280   -0.13981826127468
C         2.54631773079540   -2.48560234145295   -0.15778419652735
O         3.35912667836062   -3.62395277984594   -0.44170867623577
C         4.66162122443620   -1.08426612393072   -0.31954887881313
C         5.29926043846807    0.12353210815377   -0.00457545220183
O         6.63947194072629    0.26560446675383    0.26387928377337
C         7.37444341640296   -0.94940127034596    0.36423726973313
C         8.81578046822510   -0.80656240119629    0.79834162819286
O         9.52205559013799   -1.80856993026456    0.88874403318779
C         4.54526187248178    1.29924793470332    0.02270892094308
C         5.27303365644901    2.54368872944858    0.06976790640665
C         5.97912132077224    3.49547921897491   -0.07688406043516
C         3.14228754536814    1.25379762248803   -0.06080943564210
O         2.45062413932042    2.44534447225596   -0.02219734817555
H         0.64064571127308   -0.96654106340141    0.79985563505452
H         0.35210606379451   -0.03166676848559   -0.62652189972131
H         0.88799467094568    0.87764189644097    0.79345556803451
H         1.79609258676149   -2.39930081317616   -0.93445834585751
H         2.11597888866923   -2.75044906648650    0.81730955422700
H         3.47849151066649   -3.73212510934253   -1.40068795236347
H         5.20697596780955   -2.01157145163529   -0.19294565577859
H         7.35954134707815   -1.39291194602147   -0.63376022310194
H         6.97814505836237   -1.61386324170895    1.13987009786516
H         9.06469887974569    0.23121681838257    1.07768752925979
H         6.66986108323125    4.30807629399941   -0.01390115490865
H         3.14989290641097    3.11408394982512   -0.11399260373500
