28
 energy: -47.960325750137 gnorm: 0.108103379242 xtb: 6.4.1 (79825abcba525fcdf90b791dcacef51065a7a4e7)
C         1.09733670942638   -0.03653469901203    0.52136002902088
C         2.55860997310959   -0.00932931111984    0.12986500938102
C         3.35244229465682   -1.17436813985107    0.00087093154181
C         2.73436627382143   -2.55782604403441   -0.11855222617937
O         3.47725727680235   -3.45469043063511   -0.94369490751093
C         4.76783925615448   -1.12045309200577   -0.07739633652203
C         5.39639661005310    0.12565365403825   -0.20663334892121
O         6.74255566696639    0.37061717008384   -0.33417952765670
C         7.61397093877532   -0.74380208719475   -0.17543799844848
C         8.00160968089001   -1.15881394203442    1.22591969866714
O         8.92904814632548   -1.91336827997726    1.51144005396111
C         4.60519659074991    1.27698072931673   -0.20283115566888
C         5.39301786874139    2.48474344505156   -0.16897785387545
C         5.92583831321336    3.55268585373496   -0.12931555601949
C         3.22153723543996    1.24029770511556    0.04519934263616
O         2.48856932090839    2.39669848928217    0.20384456132203
H         0.73832495935743    0.98225619378812    0.37745418720203
H         1.10628051014876   -0.35918625967244    1.57180643192154
H         0.47091595651114   -0.77383578490705    0.00570416084580
H         1.72800496050373   -2.37994027331079   -0.47785990955571
H         2.64153622878093   -2.99753708497626    0.88353554995860
H         3.41199237559331   -3.08660707238352   -1.84138394210543
H         5.25317629923491   -2.08610810814465   -0.15015399383255
H         8.46255343715614   -0.37918522731783   -0.75843463238516
H         7.27870097378226   -1.62487683200234   -0.73353272684093
H         7.30137757480114   -0.77546626752671    1.98729987537194
H         6.46115125526253    4.47699252926119   -0.10696631115941
H         3.15641229323843    3.08193519615637    0.37429128585090
