28
 energy: -47.955525646569 gnorm: 0.115973986649 xtb: 6.4.1 (79825abcba525fcdf90b791dcacef51065a7a4e7)
C         1.09978943809858   -0.22432380005487   -0.07677097347731
C         2.60747157805793   -0.10321899133075   -0.03732180629022
C         3.37165755484656   -1.17643628542021   -0.55534607358206
C         2.80926210348710   -2.56746481525059   -0.79821768557199
O         1.82992914641218   -2.91790360682444    0.17913221433348
C         4.77981434189856   -1.05406017506142   -0.67576084550179
C         5.44203691932326    0.10468145272929   -0.24756966712206
O         6.80605112972809    0.24482548271403   -0.15677182137811
C         7.62991179450381   -0.85666515158566   -0.52346750137752
C         8.81712429054279   -0.63928623323577    0.38734254048413
O         9.62061957107700   -1.51181847409562    0.70998639157557
C         4.66487555247097    1.15024631261819    0.25679162180031
C         5.37425281642008    2.32330231911739    0.70537018514910
C         5.67924656140712    3.40836040767860    1.09983120763200
C         3.26348579768517    1.08976590830596    0.35592226144481
O         2.52793616394890    2.05796566834766    1.00494383975644
H         0.76165901452693   -1.25495791022349    0.02808300413114
H         0.72438189084586    0.08940606580730   -1.06077524690948
H         0.68233534323066    0.33210920543146    0.77059625566980
H         3.61743695581701   -3.28839990028831   -0.77342933136943
H         2.39159133281272   -2.69475338593922   -1.80593385316022
H         2.07978796873656   -2.59539718317975    1.06182731643239
H         5.29137440071024   -1.90736776101505   -1.10413895947609
H         7.93256605988969   -0.78403775840568   -1.57039082389289
H         7.14539012788897   -1.82738088681311   -0.37142113070788
H         8.87315758665069    0.38314096929812    0.79780947334711
H         6.25813593887631    4.15791087711814    1.59426367506199
H         3.04942279063183    2.84712895062981    1.22830156427203
