28
 energy: -47.950754326467 gnorm: 0.119010663518 xtb: 6.4.1 (79825abcba525fcdf90b791dcacef51065a7a4e7)
C         1.23378272609141   -0.16757721074159   -0.54671744710167
C         2.72127231561348   -0.05924553671435   -0.29183118971584
C         3.53010642937976   -1.19232961877311   -0.03486321633974
C         2.93239702997530   -2.56863924662833   -0.27724909378894
O         2.99448329427972   -2.83841016861322   -1.67742128503833
C         4.89244484441465   -1.06544163329205    0.33972274152305
C         5.36466826587597    0.23131893852556    0.58464240198847
O         6.66745883658959    0.39419253060881    0.99038651144811
C         7.47656209515032   -0.70619495777423    1.39162586653409
C         7.86913027997907   -1.60342026829855    0.23959331830348
O         8.69816136028608   -2.50889745591362    0.17766788244580
C         4.61675637338597    1.38247185666978    0.32572017517406
C         5.25163677937077    2.67034809203404    0.46283640662846
C         5.88268301244825    3.64746069205059    0.73302769595129
C         3.29314377871726    1.22626852145818   -0.12264152110795
O         2.65252629822742    2.41364611229507   -0.40445129647860
H         0.67472702094163   -0.43176515681626    0.35060894404439
H         0.89955102130488   -0.87183351841782   -1.32127143517543
H         0.98244804205801    0.83082788500897   -0.92346003220275
H         1.87377169105122   -2.71478132959529   -0.09987003245527
H         3.49448946385681   -3.38304105666578    0.19913826269792
H         3.40690125573455   -2.07287066082217   -2.11268115666669
H         5.50197449155983   -1.93390520892856    0.55785105309992
H         6.99292243380140   -1.45801349820710    2.01914825173956
H         8.33743194521403   -0.32724437641062    1.95329119326138
H         7.40639569648282   -1.20370372471881   -0.67860252469117
H         6.54586159816225    4.47206272875013    0.88009200746206
H         3.20273115574993    3.18049112296360   -0.17241895684460
