28
 energy: -47.950650039818 gnorm: 0.117529215776 xtb: 6.4.1 (79825abcba525fcdf90b791dcacef51065a7a4e7)
C         1.32538613082818   -0.18236432718691   -0.69884433043112
C         2.70879232576533   -0.04706593348614   -0.10117410995302
C         3.45914456673459   -1.20103818565640    0.22964952675240
C         2.82417617291300   -2.47307172619876   -0.30792043055007
O         2.97766044857305   -2.59686672973325   -1.72150827491808
C         4.86248491772591   -1.05886610286312    0.38065987972827
C         5.46578283615805    0.20085593602418    0.49770937656082
O         6.81911545311669    0.35098195814214    0.68310722458953
C         7.47060185314527   -0.77420576563330    1.26277246451151
C         8.14619221347114   -1.65730591234023    0.23807064036158
O         8.62489264647609   -2.77757983361297    0.40192565823230
C         4.66572221884403    1.33593954035163    0.34587335539952
C         5.27666338570171    2.64152368892062    0.39783605337920
C         5.59391539078287    3.75804240891367    0.67838700137572
C         3.30434076511785    1.23412384709400    0.00875008147209
O         2.54141701864988    2.35865046802292   -0.22159810345539
H         0.68994683854210   -0.51632521630343    0.12104605466615
H         1.20500421421224   -0.90138261816318   -1.52112320803025
H         0.98039350607685    0.80573635608802   -1.02527037329077
H         1.78253556092604   -2.49326722548382   -0.01112853030154
H         3.23654149818870   -3.33020593172945    0.24109589284368
H         3.66234465720897   -1.95415230938671   -1.97392891060681
H         5.42260432908285   -1.98060159088355    0.48068623560609
H         6.84979885476290   -1.44366542750693    1.86223070552297
H         8.24539688150813   -0.38459275425205    1.93214735891243
H         8.26308681998199   -1.02424159226684   -0.65777836166642
H         5.91407279471456    4.75324756328075    0.89854196356830
H         3.14968918791034    3.11244193424938   -0.30171712922560
