28
 energy: -47.951066651667 gnorm: 0.114869688314 xtb: 6.4.1 (79825abcba525fcdf90b791dcacef51065a7a4e7)
C         1.03695244224281    0.20620402968398   -0.54852091264983
C         2.46253873086933   -0.01683486421652   -0.09323482714513
C         3.14569842200281   -1.25274315050091    0.00650604434417
C         2.22751245583003   -2.46213971517371   -0.06080000666930
O         2.90313406542133   -3.66204788130905   -0.43612525929873
C         4.55375435989755   -1.30714571046452    0.17021303434161
C         5.32322536016620   -0.13615034632489    0.20560797319461
O         6.69510266189828   -0.06535849264662    0.16872267447020
C         7.56398882257501   -1.13595413217206    0.52277851285527
C         8.92024717268798   -0.62458556198261    0.09223524398213
O         9.91697343296179   -0.63151886757977    0.81161339355133
C         4.62709126280235    1.07471390856496    0.23337532708571
C         5.41036133352139    2.28401609030768    0.30101721147327
C         5.92912492758058    3.34176114737854    0.49603373946234
C         3.22600194431778    1.15339667891809    0.14317704350228
O         2.60256697701268    2.37995338593354    0.06217992773590
H         0.42008874962797   -0.35120822317309    0.15596753640512
H         0.85860680222097   -0.04873799160230   -1.60247492475870
H         0.72542198476130    1.25391591617286   -0.46387219730274
H         1.36111031519079   -2.24374377001860   -0.67330224429242
H         1.77958804711920   -2.59190983955443    0.93351712889442
H         3.01148023013841   -3.59634556591247   -1.40024910130220
H         5.03580543874080   -2.27372481958769    0.25198657618617
H         7.39195141086557   -2.02517919926086   -0.08763502860383
H         7.73160430180563   -1.40110536427941    1.57243000353852
H         8.93934449294823   -0.23548662595005   -0.93985851474102
H         6.32305587195411    4.33333222538836    0.44119325356003
H         3.23669588813089    3.03775466341092    0.39353120356136
