28
 energy: -47.949057010773 gnorm: 0.124275302487 xtb: 6.4.1 (79825abcba525fcdf90b791dcacef51065a7a4e7)
C         1.37278881888661    0.12588337396783   -1.04685546846543
C         2.73474246500060    0.01860941918169   -0.39654585453316
C         3.34557145801082   -1.22359048634222   -0.09997877401718
C         2.80791493355484   -2.54921581972628   -0.61366989482062
O         2.76581011730348   -3.52227814507533    0.42963740008580
C         4.56237520761814   -1.32481080395984    0.62218757746143
C         5.27244820874633   -0.18818847044193    1.03261976090842
O         6.49563980148965   -0.19876653128363    1.65880646027617
C         7.49718908461946   -0.97398466708156    1.00886061011009
C         7.75314416213719   -0.30573204038867   -0.32314068858272
O         8.58094338849057   -0.71273019312208   -1.13561664242294
C         4.81738356305102    1.01124600592937    0.47959258503850
C         5.56801299602438    2.23317345482857    0.63434387945376
C         6.16584197124665    3.26438085364762    0.56234708890704
C         3.55546393204193    1.14196301269832   -0.12691372116170
O         3.09973146561148    2.39336838656936   -0.48182998330531
H         0.64440761209602   -0.46654046127450   -0.49365747118052
H         1.41087737079857   -0.39254600774380   -2.01505064628121
H         1.12155216042196    1.19039156726734   -1.12181730313926
H         3.45862414804990   -3.01651659233969   -1.34285845447593
H         1.76436197867575   -2.53853180809178   -0.95576082758817
H         2.09605719931489   -3.30420140609423    1.10005818786352
H         4.70176023916496   -2.37938332773085    0.82659877601522
H         7.12785986294870   -1.98719085953011    0.83585216170723
H         8.42922429380449   -0.99124902834614    1.58434361880152
H         7.10481764899196    0.53170581856667   -0.63192990719262
H         6.78839100048949    4.08472671259360    0.84671946930245
H         3.78736109811348    3.05675745110111   -0.30379599802646
