28
 energy: -47.954661438961 gnorm: 0.114275212840 xtb: 6.4.1 (79825abcba525fcdf90b791dcacef51065a7a4e7)
C         1.33557247189664   -0.03397246109579    1.04716004348696
C         2.69326970756413   -0.07457256683085    0.38057330066137
C         3.40652362490171   -1.24039139795539    0.01143915991634
C         2.77233863336454   -2.62163487640713    0.02598172280251
O         2.91112771560610   -3.26852352125205   -1.23868656907372
C         4.74980302876592   -1.15904342722504   -0.43729697132938
C         5.50603206367999    0.02060029957788   -0.47086660392495
O         6.81460741413305    0.06788251938285   -0.88777703516109
C         7.70520088375656   -0.76994034369796   -0.15881211363871
C         7.56101220170646   -0.78410555591534    1.34628290098298
O         8.32235539729865   -1.36688083756019    2.11553301637046
C         4.76080387717100    1.18265930859493   -0.25681102224420
C         5.44346178044193    2.45033655108882   -0.34325072383072
C         6.19455847333702    3.32199388038313   -0.66268616097052
C         3.40213112480559    1.12004968096331    0.10021334238875
O         2.69135536506920    2.28331218926194    0.30341574749186
H         1.21045031612310   -0.82746715109062    1.78353211688647
H         0.52948832968444   -0.18915496665202    0.31656548556118
H         1.13912998405451    0.96608303904436    1.45116026044430
H         1.76662960043143   -2.53165313051473    0.41836046649917
H         3.31740404705730   -3.30658790596832    0.68922087363075
H         2.45670745983556   -2.77510077826440   -1.94269416556012
H         5.27199463040076   -2.05406031178190   -0.75288539187664
H         8.71248925144526   -0.45949969966892   -0.44502800687220
H         7.63943638198825   -1.81706480839256   -0.47404816548895
H         6.86704042518509   -0.01055615291325    1.71642437515629
H         6.75274868571424    4.22243547163726   -0.52473359260463
H         3.34875876355694    2.99799993214656    0.26269881192110
