28
 energy: -47.947373627512 gnorm: 0.119998209078 xtb: 6.4.1 (79825abcba525fcdf90b791dcacef51065a7a4e7)
C         1.23058285827233    0.10437822188757   -0.85425103302199
C         2.65479951266947   -0.02566786429810   -0.36026421123684
C         3.52776973039642   -1.13672584101743   -0.44743005157942
C         3.00780366087180   -2.33583659697194   -1.22331942577579
O         3.89915235207068   -3.44895357977183   -1.16347536930933
C         4.83493865137022   -1.10393043751101    0.10267451390140
C         5.38421489264295    0.03759627936408    0.70249193986508
O         6.67612773089642    0.32335567490783    1.07360128357161
C         7.57522238232708   -0.77615781204666    0.97772306187022
C         8.10831135325695   -0.83624734134500   -0.43596269955706
O         9.03864292686682   -1.56925831266718   -0.76489173474649
C         4.49197716410020    1.10107282967879    0.85900211500722
C         4.94173067264396    2.31549901981159    1.49413204219344
C         5.34434158420191    3.33813726561517    1.96113011431276
C         3.19008222568606    1.09168912891734    0.32762698898106
O         2.36087262545815    2.19025998379697    0.39992204457942
H         1.27882494384440    0.74553665669973   -1.73409293621906
H         0.75184603721299    0.78281343721986   -0.13441884267314
H         0.63163430115805   -0.75005786047708   -1.19057889515370
H         3.01297641688035   -1.99008806522693   -2.24993505578680
H         2.00874842822037   -2.59219269032659   -0.84607504256674
H         3.37836897791315   -4.25657309577967   -1.31222301844105
H         5.33506389347324   -2.04787401112031   -0.07671502956272
H         7.14386777134604   -1.76670675049155    1.13793787055142
H         8.39387811797780   -0.83291245968006    1.70349856309505
H         7.53650061302775   -0.14814396521875   -1.08135129427768
H         5.67559769581804    4.19690511123447    2.50352245352119
H         2.64388030339486    2.66972635962669    1.19656143280094
