28
 energy: -47.945125551165 gnorm: 0.129689401857 xtb: 6.4.1 (79825abcba525fcdf90b791dcacef51065a7a4e7)
C         1.08962773018971    0.10573233056644   -0.05340321611468
C         2.58548208324614    0.00236017197438   -0.25604083067380
C         3.39596636039751   -1.13763618073863   -0.03775601053660
C         2.62398825718357   -2.41239811363805    0.26102058757838
O         3.34600049294635   -3.53553192941857    0.76538352675344
C         4.81119221983893   -1.06973387130392   -0.10780029580121
C         5.37882987306932    0.21091543969415   -0.15568989520556
O         6.74142716352929    0.32306664875717   -0.01723381056077
C         7.61373423711159   -0.73318151560885   -0.40442099031675
C         8.22410304316681   -1.37498534932520    0.82107474265609
O         9.12490456843205   -2.19598967311826    0.66131009390621
C         4.60122934406134    1.36982516729100   -0.21758992922236
C         5.20483254630796    2.63791807599781    0.11119988668134
C         5.88164336446205    3.60312784661807    0.30164392792335
C         3.20376447392525    1.27460171076905   -0.34169644862541
O         2.36044924388787    2.36248561566910   -0.27097809937163
H         0.57677304417760    0.05745736755207   -1.01370671443303
H         0.74344897733184    1.02612873703239    0.43716012406075
H         0.89533859251599   -0.77812227902527    0.56544215787617
H         2.02495963316433   -2.66551790393023   -0.60535319389824
H         1.97558836362934   -2.23835012043285    1.13017420140227
H         3.92419866479781   -3.83340039697821    0.04250613869128
H         5.32686349952447   -2.00896011953710    0.05117302632380
H         8.44829601489669   -0.28798519857755   -0.95052506751338
H         7.20802896156363   -1.51930817336944   -1.05062257432815
H         7.81724068095278   -1.12020804131775    1.81431779319440
H         6.52652841565440    4.34474760942147    0.72060176376919
H         2.96319707591915    3.08926034888464   -0.04052375333359
