28
 energy: -47.947615377175 gnorm: 0.118079975973 xtb: 6.4.1 (79825abcba525fcdf90b791dcacef51065a7a4e7)
C         1.33125820902636    0.22552733476989   -0.86846641902726
C         2.72303750791390   -0.03010432631447   -0.33280712511127
C         3.42981571228375   -1.25300995893338   -0.23745996943490
C         2.83528329228888   -2.53482205989046   -0.79757117632560
O         2.51202649545002   -2.48171628866889   -2.18674288378964
C         4.76129388411950   -1.25843496624671    0.25194537947926
C         5.35893804671774   -0.09348334896242    0.75222305612906
O         6.57613886060063   -0.01080032324530    1.38468257921072
C         7.36923529352160   -1.17508858675891    1.58943759461896
C         8.39023039281601   -1.23234941294235    0.47561883163045
O         9.53081744664702   -1.68995205117517    0.50164243522347
C         4.67110662235716    1.11191286890115    0.59261776241754
C         5.28889845670514    2.41298022485077    0.51479615275747
C         5.52673709813236    3.57552565650005    0.38103281246617
C         3.33423379432501    1.15036385851970    0.15825549084916
O         2.60336522100731    2.31645639355702    0.23396800705852
H         1.24027451677741    1.21505889927160   -1.31577219709833
H         0.62624562697070    0.16740315557127   -0.02751427740732
H         1.18178404803922   -0.49355970101817   -1.68240016444889
H         1.89026693328805   -2.62707449564593   -0.27609057084156
H         3.51929803268509   -3.34637215559607   -0.51534182948321
H         3.28925206621359   -2.28816713748495   -2.73814981664566
H         5.36151876538273   -2.15702872913786    0.17714784153875
H         6.65438118802896   -1.99124895747326    1.71509045729468
H         7.80403351322273   -1.01089265852582    2.58148526930057
H         8.02665896826349   -0.91689814445095   -0.51699717298032
H         5.78913298228426    4.59425466769930    0.19464108277104
H         3.23118377665024    2.93743368768639    0.63998121886259
