28
 energy: -47.950079323140 gnorm: 0.111624310632 xtb: 6.4.1 (79825abcba525fcdf90b791dcacef51065a7a4e7)
C         1.62192769956417    0.11734298144102   -1.34471262635092
C         2.87774588161823    0.10022390659578   -0.50093798045587
C         3.52584682765376   -1.11616573568861   -0.17769490329786
C         2.91249386608525   -2.49040378107996   -0.39101052005475
O         2.54065908758561   -2.87746560840310   -1.71352148220570
C         4.84272024857610   -1.10415391768406    0.34963919544373
C         5.40742173514246    0.08995124904470    0.81846073685600
O         6.69331993614276    0.20672960694239    1.28883077884248
C         7.50384317467304   -0.96144482122853    1.35893292162171
C         8.21995407905856   -1.37812704891857    0.09407596481982
O         8.70265418875376   -2.50638373729999    0.02298673553004
C         4.73669240654374    1.29830827574161    0.61459459751873
C         5.18172623236517    2.61187855056047    1.01079810850063
C         5.12634205999349    3.79513829717141    1.16179708166031
C         3.46162813874648    1.28087154563756    0.02190153967719
O         2.67747990117636    2.40872133769259   -0.09096754828481
H         0.91524905760102   -0.60619174071177   -0.93895899641061
H         1.81248844435705   -0.28243218877234   -2.35044026163411
H         1.18309838516202    1.12164867249704   -1.37146589594677
H         1.93419256688415   -2.48918699018966    0.07421365887597
H         3.52662610072857   -3.28820649461615    0.04773262815278
H         3.17139760462889   -3.41437096877885   -2.22292507705306
H         5.27864717088446   -2.08883342917582    0.46672593137339
H         6.96684915693795   -1.78284624839678    1.83836999006545
H         8.32984027263681   -0.88591121233579    2.07460872052443
H         8.34181002588140   -0.70564187477681   -0.77188883413204
H         5.26076436613756    4.83678209592292    1.35752932978400
H         3.13002534203984    3.24069409214448    0.12729747137704
