28
 energy: -47.955883814753 gnorm: 0.113874964675 xtb: 6.4.1 (79825abcba525fcdf90b791dcacef51065a7a4e7)
C         0.98815223038392    0.01694868005304    0.14129250825878
C         2.49215313290107   -0.02036397937230   -0.01969535597863
C         3.23976266233634   -1.15227542321378   -0.42464125698105
C         2.56111405429051   -2.42920278808909   -0.89275258011692
O         2.45185390142998   -3.42165080730325    0.12716034076046
C         4.65124593064412   -1.14823727570408   -0.56634461522893
C         5.34439653149841    0.00731138457059   -0.18057508842568
O         6.70990011883661    0.15424203426167   -0.22780542821765
C         7.53211297533934   -1.00366536795916   -0.12926507787104
C         8.84059676045157   -0.56748700076175    0.49034822938301
O         9.79658164612966   -1.30753785636138    0.71268549663839
C         4.64894920879521    1.16741306511527    0.16882881543669
C         5.40038351006902    2.28406971823729    0.68740727777734
C         5.82812403572269    3.36697201474799    0.95260981938434
C         3.24395085825798    1.15558724007402    0.22555438653089
O         2.52546680660806    2.29190490563607    0.52925800087770
H         0.58108078680249    0.40922973996949   -0.79034133656087
H         0.70876867676631    0.61778015225778    1.01797263050918
H         0.74307239192440   -1.01052093657358    0.43482086151049
H         3.21055915411895   -2.80115333382242   -1.67593985519607
H         1.52320358853063   -2.22545299589604   -1.18833846716655
H         3.20192981112612   -4.03987030961108    0.15511109295057
H         5.27062867165399   -2.00190317921036   -0.81323504357343
H         7.75205380037624   -1.41925968698433   -1.11507955405150
H         7.06186381225233   -1.80146515590800    0.45601229691338
H         8.91823020334684    0.52848978731458    0.58928328635827
H         6.25328333692153    4.20746781321872    1.45680091138722
H         3.09162519099932    2.95137508423463    0.96420561893946
