28
 energy: -47.952104818512 gnorm: 0.112532264129 xtb: 6.4.1 (79825abcba525fcdf90b791dcacef51065a7a4e7)
C         1.10894739049881    0.00781947438521    0.49920229390286
C         2.58724310264593   -0.02431095423458    0.17836361673404
C         3.28668072221254   -1.23863093067158   -0.02248137851951
C         2.52068424203154   -2.55142811826800   -0.02944944050525
O         2.99167693947866   -3.63114954539646   -0.83535311010027
C         4.67291875969718   -1.13164678035328   -0.30404778314906
C         5.45997258090211    0.02739866891499   -0.34562308863323
O         6.78661687224685    0.09274280221727   -0.69799281125819
C         7.63196291493140   -0.94901508712256   -0.22194207882991
C         8.14479936498085   -0.66252606315613    1.17133637391104
O         8.88365283823935   -1.44081265665094    1.77082094740885
C         4.76020888710492    1.20302895017399   -0.06315152627045
C         5.45062292596644    2.46707777019258   -0.14066439514229
C         5.90304441650529    3.57211183057655   -0.15431166417294
C         3.36831292198888    1.15719039420996    0.13153399301439
O         2.81989636899799    2.38217754662897    0.44509230811257
H         0.89045702036901   -0.32891053988169    1.51232028400862
H         0.56644490673707   -0.72504667887011   -0.11416539311518
H         0.70419652277843    1.00721285380070    0.30094378420283
H         1.47831130407805   -2.38390840127065   -0.27215141680909
H         2.53924239627169   -2.94831685890842    0.99440506570886
H         3.05516518484881   -3.40949261067513   -1.78003713783304
H         5.19288295266057   -2.07328402425144   -0.43168742177309
H         8.48262531192905   -1.00956095831222   -0.90431329002693
H         6.97551710227701   -1.81827680361231   -0.33869543968748
H         7.97231109542430    0.35079583703096    1.57184447568705
H         6.53935716141977    4.38996929308772   -0.41434539074587
H         3.55392293665360    3.01895622192999    0.46335654794561
