28
 energy: -47.950893198727 gnorm: 0.121221785961 xtb: 6.4.1 (79825abcba525fcdf90b791dcacef51065a7a4e7)
C         1.23621916706460    0.14724634042608   -0.87914355015054
C         2.67910855426559    0.11181703117716   -0.42511379716725
C         3.43749070489998   -1.07734371823168   -0.54708888615917
C         2.82614445135503   -2.41262117962797   -0.93891216093907
O         3.82632016914875   -3.42883592463931   -1.00270352440119
C         4.82200571668929   -0.90253377407374   -0.29225400578229
C         5.36956025540516    0.23532210683574    0.31605232957304
O         6.68534341115668    0.36910154170077    0.68919722800019
C         7.23938787445253   -0.87609946838605    1.10029687127328
C         8.10113261544511   -1.42978901029180   -0.01196475649605
O         8.90301670133265   -2.33751398471697    0.19787688681150
C         4.57567545967701    1.36536965329012    0.52654091228202
C         5.11399550953425    2.52227771251740    1.19905445788171
C         5.63533635508423    3.25022052311568    1.98916502754557
C         3.21568414441774    1.27516962534341    0.18061377321587
O         2.51847787077770    2.46347667812500    0.21937995136524
H         0.66888262731384   -0.78313240542839   -0.88674897392290
H         1.14524924764997    0.65356526466654   -1.85021887364037
H         0.71540346909924    0.82687429562256   -0.19447305805365
H         2.24277840281301   -2.34837052465203   -1.84944187098693
H         2.12697368644629   -2.68767918546305   -0.13788378294756
H         4.24842514006166   -3.34557981807852   -1.87476217055875
H         5.50475721436716   -1.68487061711641   -0.60069328885174
H         6.51650148239393   -1.62259500295436    1.43660397449275
H         7.82536955314015   -0.62344538418117    1.99077975791066
H         7.78601138129230   -0.97111119285169   -0.96448430226377
H         6.20251447924490    3.88025809667587    2.63936799858754
H         3.09507364392164    3.12630200121400    0.63509087273149
