28
 energy: -47.958099203619 gnorm: 0.121878532982 xtb: 6.4.1 (79825abcba525fcdf90b791dcacef51065a7a4e7)
C         1.44208472472761    0.00135683960004   -0.95944725126835
C         2.82948840776796   -0.01969541905748   -0.35612655390398
C         3.53823995412531   -1.17719466595212    0.04635505448890
C         2.91620191856759   -2.56167676489469   -0.03435205391348
O         3.04758430309024   -3.01156926955861   -1.38247987575382
C         4.86975617957639   -1.08311897816151    0.52655862821956
C         5.45625248402805    0.18981321725397    0.54186529371713
O         6.66839784375626    0.35437390292365    1.16799848682825
C         7.51544858904273   -0.77592463944435    1.34526656846977
C         7.78966589224317   -1.52973428148219    0.06351857212850
O         8.10209725732717   -2.71796871814162    0.02476556020586
C         4.74837657902565    1.37982006962091    0.35649713645892
C         5.28668746327127    2.69455852119280    0.60586309306176
C         5.72523439816172    3.77859190992591    0.84777197641973
C         3.45493346246688    1.23924933121138   -0.17700335290171
O         2.76204930909206    2.37484252148318   -0.53757610637073
H         0.80271315897438    0.71906167662114   -0.44599133747768
H         0.95492553007557   -0.97657134229469   -1.07757451695058
H         1.64892210137240    0.33585970034434   -1.98279615160577
H         1.87455104203960   -2.58533077463953    0.26214818216709
H         3.47677195813748   -3.26418309824298    0.59682875300415
H         2.66476659420243   -2.35467635587322   -1.98872468630116
H         5.31701199550583   -2.02970376759395    0.80454209250373
H         7.32649964632728   -1.48355351598415    2.15550261651998
H         8.46962086259738   -0.26574820635106    1.51685813240453
H         7.55587701822457   -1.03144101834404   -0.89252891744869
H         6.18808951467599    4.69101152412825    1.15543714088467
H         3.24467510200278    3.15084831217612   -0.20666369897357
