28
 energy: -47.949495980311 gnorm: 0.123312156102 xtb: 6.4.1 (79825abcba525fcdf90b791dcacef51065a7a4e7)
C         1.07847560713251    0.03649796065066   -0.56668738620870
C         2.56289565585284    0.05541098063742   -0.27433922941298
C         3.40686861665950   -0.92507850928521   -0.84920851640450
C         2.77122026906232   -2.06440739047944   -1.62902676620026
O         3.71612357882559   -2.86063231032526   -2.34337739721801
C         4.81498156638318   -0.82115305905399   -0.71210063356498
C         5.33565677337234    0.18935967106308    0.10785663058286
O         6.69076032392892    0.25162864896199    0.32748425618216
C         7.36538876230357   -0.82519591116233    0.96921555933905
C         8.60699394373950   -1.19014657226225    0.18721196591600
O         9.58362440991481   -1.78290155822456    0.64091967931230
C         4.52954866350505    1.02404788972702    0.88570702254423
C         5.08491771325375    2.03724034020620    1.74913359709514
C         5.31711902714469    2.83553056739243    2.60633075690227
C         3.15132018386469    0.99517393829036    0.60816326837573
O         2.35035833760562    2.01313447001705    1.07921477428143
H         0.56884113409329    0.95946672383146   -0.29112510449287
H         0.51545972095886   -0.69570467661041    0.02872345539217
H         0.95499657480091   -0.08224160853502   -1.64954041005649
H         2.14496202986909   -1.63360950644809   -2.40085722137574
H         2.19040186002744   -2.75987453443354   -1.00844755962945
H         4.05127408091532   -2.33678587720239   -3.09093978487355
H         5.41098609123465   -1.62882588696826   -1.11925973976198
H         6.67084179926676   -1.66803219806025    0.95679400399636
H         7.42017913811643   -0.60670484945631    2.04132938363027
H         8.40762057613267   -0.91972315569821   -0.86355044900598
H         5.81213505789449    3.61127926883493    3.14907871667530
H         2.97913853438666    2.54863137635166    1.59155664686230
