28
 energy: -47.953450281199 gnorm: 0.114591671870 xtb: 6.4.1 (79825abcba525fcdf90b791dcacef51065a7a4e7)
C         1.35801684594879    0.12258712109802   -1.12900742889097
C         2.70687015146316    0.07596040245767   -0.44508582863390
C         3.46788107712920   -1.11669637358083   -0.39452000864000
C         2.91011525364748   -2.39153511155195   -1.00600927162333
O         3.79867226246659   -3.48515666905398   -0.77891556991606
C         4.79263431461819   -1.14513343138599    0.11203833699767
C         5.34700168178849    0.00823598131039    0.68386383710767
O         6.60192806021908    0.09605388176004    1.23691641973115
C         7.62101960195237   -0.83973887695230    0.90189691260669
C         8.10941105712710   -0.72436299686824   -0.52444954691225
O         8.80482566587695   -1.56909030528828   -1.08467318598589
C         4.56263329406123    1.15922354086506    0.79138051715610
C         4.79901291127575    2.29772517151221    1.64486627308097
C         5.29233493741037    3.23494857665671    2.19642533887611
C         3.28879062881078    1.19724082990541    0.19702576248537
O         2.56623503180150    2.36999265149143    0.24435056822640
H         0.80279941209562   -0.59452619123244   -0.52484245755528
H         1.39462746476514   -0.32447362042032   -2.13221130725690
H         0.91764674869513    1.12384766210426   -1.20295561901508
H         2.78800452556862   -2.17480301778092   -2.06034537777236
H         1.92240510544237   -2.68265410664926   -0.62414343001906
H         3.35940298223028   -4.32452294066552   -0.99822637637603
H         5.36351103187650   -2.06365557047174    0.05078321090684
H         7.44354486927300   -1.82881857352986    1.32985351701616
H         8.48401275431455   -0.38199911915576    1.39776536105529
H         7.80689050786400    0.21510692650044   -1.01725558988076
H         5.55812875281965    4.17571951260575    2.62736149728588
H         2.87097714948820    2.89139128007220    1.00585656111817
