28
 energy: -47.951254948027 gnorm: 0.123525494060 xtb: 6.4.1 (79825abcba525fcdf90b791dcacef51065a7a4e7)
C         1.35285974347633   -0.13689932609065   -0.63037104683405
C         2.81635354602903   -0.05652816818914   -0.25479895290462
C         3.63022340251166   -1.20702759241509   -0.12029384253953
C         2.91261829718891   -2.51624997766504   -0.40527678504942
O         2.21467517048090   -2.66862677319970   -1.64090209692220
C         5.02550583986935   -1.08728827075916    0.10604783241069
C         5.56558506102509    0.16617597438442    0.42496848594083
O         6.85960939682222    0.38762038033436    0.83102604307794
C         7.66148325614357   -0.64722010717047    1.39012997031876
C         8.18569787747586   -1.61000566689323    0.34871505616411
O         8.50816851575546   -2.78698216180485    0.49621165315713
C         4.74072678766212    1.29105969258374    0.34873594077609
C         5.26942435149115    2.61633134312627    0.56000153300828
C         5.28921803044854    3.77620092884585    0.84334318103641
C         3.42019953407849    1.21932764038828   -0.12921832973071
O         2.64615725401245    2.35557282649401   -0.22657578009056
H         0.70872030022893   -0.06932594670340    0.24601438296535
H         1.04175927443255   -1.04768398894606   -1.16075718444797
H         1.01060085617480    0.62822842395338   -1.33702174157032
H         2.11542816227480   -2.67144645873272    0.31159864967493
H         3.67085393480927   -3.31072433087254   -0.39958941619921
H         2.58387799418432   -2.02959381060584   -2.27408186215300
H         5.62871672840615   -1.98628713177097    0.07036875842068
H         7.21595113840214   -1.23094153340203    2.19864293198501
H         8.50733092703694   -0.18523076376582    1.91097154397029
H         8.49290448647848   -1.09765283838270   -0.57870011147577
H         5.80057360615157    4.67756647748139    1.10306977873408
H         3.26035275028731    3.06247133248225    0.03356660672105
