28
 energy: -47.950228494769 gnorm: 0.114497776776 xtb: 6.4.1 (79825abcba525fcdf90b791dcacef51065a7a4e7)
C         1.28820565291249    0.18052606872311    0.72306810714677
C         2.76288517970923    0.03443463114917    0.41760841464768
C         3.34061456373093   -1.23778002760706    0.18996109911301
C         2.75279609312143   -2.63944709965951    0.18408969271229
O         3.55341600382949   -3.48267588901732   -0.64360963642787
C         4.72297930491278   -1.17852497231640   -0.12298892186856
C         5.37680393022784    0.04141069891904   -0.34398414787985
O         6.70743033533946    0.21523252491430   -0.64002250235832
C         7.63689018694529   -0.76828028457704   -0.19809414739533
C         7.57775877656051   -1.06615877742795    1.28314651915514
O         8.23774270643220   -1.97929694467883    1.77469115640406
C         4.69995832273656    1.26265293479578   -0.29911333164799
C         5.37211889834921    2.45504167296921   -0.75398523547400
C         5.85934018379109    3.50292436753649   -1.05486560007371
C         3.39275472559154    1.28816399025136    0.21852161218507
O         2.73072510013087    2.48491404402650    0.38934059378831
H         0.74707733052153   -0.74620363313832    0.91250253724375
H         0.81657535122589    0.63718480900614   -0.15820898869936
H         1.18752166249144    0.87296908662583    1.56704810213480
H         1.70273150928064   -2.80574706711523   -0.02379760910750
H         2.85456307075785   -3.09011768521983    1.18042429034363
H         3.61914198961556   -3.16289412217936   -1.55958462716074
H         5.22976899643746   -2.12497463618452   -0.26697702837233
H         8.62886406943096   -0.31637459703139   -0.26659125064033
H         7.73031659314316   -1.70848444575614   -0.75258131833609
H         7.04449037521022   -0.29456036716133    1.86387099918410
H         6.32520190113217    4.31203656267622   -1.57420420454385
H         3.41143759305857    3.16274006478034    0.24169895773646
