28
 energy: -47.953505696630 gnorm: 0.107041882211 xtb: 6.4.1 (79825abcba525fcdf90b791dcacef51065a7a4e7)
C         1.12990755130882    0.05643204355640   -0.65084734592690
C         2.57048916992498    0.00363251049773   -0.19121178749441
C         3.36040097766882   -1.16428529509362   -0.06419984545857
C         2.98352092510803   -2.55049106348324   -0.56081904335546
O         3.79134626615946   -2.89995071021547   -1.68438897482509
C         4.70281240532935   -1.06865959221139    0.38431821107931
C         5.26710008414726    0.17727482407120    0.69057861947262
O         6.51159884228908    0.37290710799692    1.23955058546787
C         7.33481027262294   -0.77141384006088    1.43790945867096
C         7.94103401914806   -1.42111654829978    0.21452023543612
O         8.32559959457966   -2.58508393792547    0.30565455626242
C         4.52521026249422    1.32805009070494    0.41330300980507
C         5.34919396255005    2.51188643680692    0.42233549769076
C         6.26313710837161    3.26959109539630    0.55103402176672
C         3.18015275469951    1.26733826542592    0.00770175439274
O         2.56100047598765    2.43974521306311   -0.36884234228334
H         0.84598983279850   -0.85417040188680   -1.17784556402857
H         0.92540157388196    0.90238227602919   -1.32179233026368
H         0.51529730988932    0.21856572125610    0.24239604337923
H         1.91763117612209   -2.60638491055069   -0.74592271978205
H         3.23302634155322   -3.18082508277747    0.30322331889552
H         4.23126358220986   -2.06895246170965   -1.93239126290644
H         5.33131379395562   -1.95088481431755    0.38432853244761
H         6.75027428707180   -1.51653548465762    1.98199971095214
H         8.08073686049158   -0.36299922870276    2.12853194241428
H         8.09051379983062   -0.81428614820119   -0.69454130070467
H         6.94327932843373    4.09302254937906    0.57877350383971
H         3.11851208046383    3.22968769969175   -0.26991135794055
