28
 energy: -47.952656275018 gnorm: 0.112842210182 xtb: 6.4.1 (79825abcba525fcdf90b791dcacef51065a7a4e7)
C         1.05353096514041   -0.05593584167563    0.39296194685994
C         2.53101514229268   -0.07068886507885    0.06715387385881
C         3.23759012026425   -1.08358493788353   -0.62488518161036
C         2.69657653452568   -2.43219426263225   -1.07074706619022
O         2.71005134077011   -3.44520237777515   -0.06538832291258
C         4.64968532738633   -0.95460951254721   -0.66652205209941
C         5.36303004120457    0.13603439775413   -0.15057267253002
O         6.71781420703671    0.17810278231405    0.07572243061456
C         7.41582053354293   -1.06158987457420    0.12514931015274
C         8.88314434566847   -0.78671369485482    0.36536993884275
O         9.66570654717854   -1.73402893841877    0.33063578455214
C         4.61793661915642    1.26552647814027    0.19677355466027
C         5.26179407528423    2.48667802838770    0.61478751725280
C         5.62906662588413    3.58315077857777    0.91283131850888
C         3.21806241397309    1.15249298474634    0.26715572114523
O         2.46408435883939    2.22840554252615    0.68381183764409
H         0.68630703070161   -1.03332450393135    0.70503756808266
H         0.53138310790958    0.31399111454593   -0.50042337286534
H         0.89715875072858    0.70508028463809    1.16647278596789
H         3.27800369323667   -2.81281279616127   -1.90175876384821
H         1.67495890984743   -2.21102853865934   -1.40768367780520
H         3.62526824830332   -3.70080791266286    0.14109240344026
H         5.18147666595559   -1.78919304138128   -1.10698050138417
H         7.32995747461771   -1.58325934122218   -0.83057621938762
H         7.02871635358480   -1.64037243592727    0.97092084164572
H         9.17134980101007    0.22811738445548    0.68791561408703
H         6.33070359858005    4.35960935657917    1.12781948309482
H         2.92725182974533    3.03153739605190    0.97548079314831
