28
 energy: -47.953141033411 gnorm: 0.108778710739 xtb: 6.4.1 (79825abcba525fcdf90b791dcacef51065a7a4e7)
C         1.47215592057385   -0.01577530552215   -1.04202293207301
C         2.81289818062509    0.00804674064641   -0.34118719127299
C         3.60412620005087   -1.12870908666226   -0.04815288613385
C         3.00379296890043   -2.50267856646686   -0.29723821811692
O         2.79392504089955   -2.83529206154995   -1.66925750545371
C         4.96247866159084   -1.02411122069271    0.34721911953696
C         5.53289493820213    0.23219253633583    0.59398765165178
O         6.84396189023472    0.46345790220564    0.93463281522488
C         7.58857193052182   -0.71398982752062    1.22732115238902
C         7.81553120225620   -1.70299023449593    0.10630834524368
O         7.86564199294794   -2.90812967283726    0.34325574990532
C         4.70098609023384    1.34823143144004    0.47587414663553
C         5.13213689357594    2.70876832119573    0.68455465216433
C         5.57536452702850    3.79626047654167    0.90107669357637
C         3.38755638959312    1.26272459596894   -0.01906929314907
O         2.60304746002400    2.38490014296303    0.13885737964155
H         1.01873242583601    0.96901266353944   -0.93187304391886
H         0.83948444944088   -0.86938335728927   -0.76148458566022
H         1.63854988380682   -0.17274918374377   -2.11421185277714
H         2.07138360615799   -2.81596244758379    0.15660584586106
H         3.71811770618674   -3.15630650139039    0.22108004474941
H         3.64657723562516   -2.96578767176751   -2.11819580623941
H         5.52237654842267   -1.92874830730445    0.55088901388397
H         7.09367846515351   -1.23675986029444    2.04873136416818
H         8.58172576248773   -0.31563568321207    1.46211430813186
H         8.04090334163277   -1.35279814016916   -0.91523612812751
H         6.01731858659715    4.76855884189717    0.87434157037562
H         3.18130055259136    3.16498869865995    0.18009898916124
