28
 energy: -47.945715424566 gnorm: 0.126652488315 xtb: 6.4.1 (79825abcba525fcdf90b791dcacef51065a7a4e7)
C         1.26928601173629   -0.06458149570790   -0.89841048898311
C         2.65828953155933    0.08879167761394   -0.31834675726951
C         3.41548808414425   -1.09348999019489   -0.49996478866002
C         2.95056262045526   -2.38622189487595   -1.15029098505487
O         3.89023210493796   -3.45095346744667   -1.00717860707244
C         4.77655184758570   -1.05715087873525   -0.10176124485623
C         5.24108857672737    0.03774280242809    0.63984648454185
O         6.51606797300398    0.18204126618981    1.13180669735386
C         7.58865264972343   -0.72183304410861    0.88876952634661
C         8.16676091314490   -0.83166075991887   -0.50408033447285
O         9.01255058347346   -1.67722667770716   -0.78811262280968
C         4.47088574352937    1.18380446186824    0.85173377495732
C         4.99913504518338    2.32108324635636    1.56450921719093
C         5.35013585243878    3.21320044326061    2.27647624922277
C         3.17588522732973    1.24998404094574    0.30770076239201
O         2.38013251154173    2.36898945058205    0.42718945672399
H         1.34467482618841    0.47414632680311   -1.84266790847398
H         0.58655726672698    0.53481760051474   -0.28016793979276
H         0.97113665068443   -1.08733787414206   -1.15724088930229
H         2.92116819758668   -2.15886594740123   -2.20904199177828
H         1.98947899291540   -2.75840254681491   -0.77089284699560
H         3.51410502740113   -4.26048029895563   -1.39290545168049
H         5.33026480239182   -1.97635838196880   -0.24939207392269
H         7.42693778180784   -1.75156878419307    1.21498324230540
H         8.40671382884305   -0.41208377527088    1.54831458188411
H         7.92017192490579    0.06723162979780   -1.09413673650542
H         5.73331528521762    4.08384087822030    2.76285164206819
H         3.03765913537397    3.04766538537250    0.65450725448673
