28
 energy: -47.952186155680 gnorm: 0.114637840170 xtb: 6.4.1 (79825abcba525fcdf90b791dcacef51065a7a4e7)
C         1.01061877343507    0.18067748214015   -0.50430063972257
C         2.50424029347939   -0.00189649255982   -0.34590383470394
C         3.18508169598850   -1.23735448443992   -0.22664258409636
C         2.37134798665280   -2.52052752104241   -0.18739924295053
O         2.99824957599927   -3.68582892649574    0.34755892718767
C         4.58029599259045   -1.19797347320772    0.02674913470084
C         5.29296232928772    0.00321301186552    0.14433445465741
O         6.65595805059514    0.11211734692119    0.28145438418034
C         7.46022515560934   -1.06180575169989    0.32085889076859
C         8.89286876086138   -0.57989659928136    0.28088510080234
O         9.81649421948349   -1.09893077772050   -0.34244127021155
C         4.56563273328017    1.18837428438456    0.27831354429713
C         5.28460617494400    2.35153405164757    0.73726425248912
C         6.03603929124682    3.24526074131459    0.98740941303874
C         3.21626555172624    1.20180966519662   -0.11716806974140
O         2.45437944079175    2.35033717211163   -0.10783115578593
H         0.86168300298204    0.68987844042349   -1.45617549042236
H         0.72845949880058    0.94776118322645    0.23026753846090
H         0.37392081700990   -0.68829797187662   -0.30079584711156
H         2.05884704953570   -2.75895405493791   -1.19685672296870
H         1.51110528529106   -2.33295831092176    0.46906356258066
H         3.58240306258075   -4.02962119011067   -0.34969429197267
H         5.14779337912070   -2.12027750895270    0.00150391865985
H         7.33548565775909   -1.58225114281400   -0.63124375023668
H         7.29833514367379   -1.61348977094034    1.25338489561549
H         9.14821638335664    0.23427966392555    0.98009524163786
H         6.55778269274254    4.05123898854532    1.45600856205954
H         3.06048440324549    3.09170629433134    0.05837433228632
