28
 energy: -47.954242388638 gnorm: 0.119187772224 xtb: 6.4.1 (79825abcba525fcdf90b791dcacef51065a7a4e7)
C         0.93718154029897    0.18841167602748   -0.15383114383301
C         2.43644229966203    0.02644841331113   -0.03008494677622
C         3.11742002910700   -1.21441290450784   -0.00444844405540
C         2.33321806071573   -2.49793855288910   -0.22313730234806
O         3.22761992718880   -3.58959015334684   -0.43633979198391
C         4.52461064695006   -1.24785395593382    0.17183944565115
C         5.31082879284541   -0.08767638615598    0.15140387666531
O         6.67589320473726   -0.05428552617913   -0.00320388071877
C         7.44908335006038   -1.17703271038794    0.40680769355038
C         8.84704576123834   -0.60095477215423    0.39508838341159
O         9.81956087433364   -1.13720427158854    0.92202961423462
C         4.62834237548086    1.12733741767842    0.05383487989481
C         5.28325043513878    2.40565133646712    0.18615331229730
C         5.95737388925334    3.39044538945084    0.22750505139506
C         3.22437225767118    1.20277040276022    0.03025977436487
O         2.58648905039492    2.42106583743286    0.12264106758449
H         0.45636041353941   -0.64832608799020    0.35234488213338
H         0.68574881729532    0.19326936086863   -1.22358796382952
H         0.64817892148018    1.10220276592507    0.37850349091873
H         1.65162450266846   -2.40462257529814   -1.05993524726586
H         1.79577624159263   -2.70859040275970    0.71116736912332
H         3.89341996262286   -3.28552957754324   -1.07653347181685
H         4.99113850499613   -2.22236065248045    0.09422634762374
H         7.26914443901738   -2.05668997883207   -0.21508286212157
H         7.33161221450758   -1.51391616516663    1.44260615451832
H         8.75705937753591    0.29366297140844   -0.24408433297561
H         6.52065488244232    4.29667320583677    0.28105819649449
H         3.17991623694107    3.16288143381536   -0.08271096393566
