28
 energy: -47.956881963626 gnorm: 0.117994393630 xtb: 6.4.1 (79825abcba525fcdf90b791dcacef51065a7a4e7)
C         1.12043548844013   -0.01741245472015   -0.39655592429888
C         2.62194822454852    0.09822047852149   -0.25021190963370
C         3.46247550986744   -0.91542729349317   -0.76997799728198
C         2.89268532799229   -2.13887909769143   -1.46907774788983
O         3.78358633800572   -3.21480943324924   -1.76196427144459
C         4.86503108800961   -0.79068725438686   -0.59776031285630
C         5.41339595737573    0.30847491799415    0.07730047448027
O         6.74140574678814    0.42478461754567    0.41088916276894
C         7.73025173801219   -0.42161442441113   -0.16555337149153
C         7.91226345300239   -1.73088068723686    0.56860983901346
O         9.00031077683517   -2.16115773036205    0.94547973327669
C         4.58767702419448    1.20190255899098    0.76398908759456
C         5.08125764866463    2.27382067778773    1.59336771145027
C         5.46298296472436    3.18464681732709    2.26467482414819
C         3.19796368479619    1.09221532837377    0.57948017235162
O         2.25072205541214    1.96586449105204    1.06850316494601
H         0.62155651795975    0.92684941203134   -0.17970918697840
H         0.74281997334866   -0.75820530452684    0.32195235142419
H         0.86570580736481   -0.31316121892033   -1.42103739729755
H         2.44456570624119   -1.84603108252572   -2.41085123169802
H         2.21380645251799   -2.56808216965683   -0.72004415234253
H         4.31780236445604   -2.83863538748546   -2.48217034839722
H         5.53172419193445   -1.57224980188987   -0.94129433644429
H         8.69577480867716    0.08845461839556   -0.14280350159706
H         7.60141434853420   -0.62518972555061   -1.23425651237996
H         6.99151491772788   -2.24467426287150    0.89298387045897
H         5.71971208602574    4.13939104609414    2.66958948578819
H         2.66991146846946    2.43206955868190    1.81116643701333
