28
 energy: -47.946350867218 gnorm: 0.129589800631 xtb: 6.4.1 (79825abcba525fcdf90b791dcacef51065a7a4e7)
C         1.37417048749454    0.07829569319271   -1.01974571043107
C         2.73301623773087    0.01257145817389   -0.35751720789273
C         3.41154232119120   -1.18810708252858   -0.03798928565090
C         2.86413065644553   -2.60126703872825   -0.15441537706127
O         2.66712013089827   -2.89488354494548   -1.53719859126104
C         4.70146505961997   -1.14769797852560    0.55094839474337
C         5.35039771636227    0.07820835025592    0.75246429239886
O         6.67120278551536    0.23033912925149    1.09995464676392
C         7.72347837864176   -0.71914758602222    1.23293874594606
C         8.03596600982674   -1.47557831705884   -0.03846443750261
O         8.91799597054307   -2.33175473072417   -0.03961578397015
C         4.62820134795961    1.26384849037395    0.59672145797625
C         5.24313767463599    2.54906967457662    0.82157482815990
C         5.59676624345279    3.68952467832777    0.83833646999310
C         3.37441797163791    1.23551452289058   -0.03936221535351
O         2.72311148642120    2.38543678117525   -0.43070824624462
H         1.26621674088854    1.03426457496757   -1.53160769790976
H         0.52922643114562   -0.02140640177077   -0.32422382385452
H         1.26356057134850   -0.73308508347546   -1.74867884318542
H         1.85345356574299   -2.77819996241107    0.19305405496076
H         3.49483088466372   -3.38012748082043    0.29473577606881
H         3.32801038008979   -2.35744356289309   -2.00621118494194
H         5.15498036737417   -2.09816526165652    0.80446593546134
H         7.58392037559159   -1.41529026390298    2.06289761014309
H         8.48901786073261    0.00061749665452    1.54286762480540
H         7.31742495191701   -1.47075004552221   -0.87551619815130
H         5.91545821497734    4.64373301401449    1.19795315352534
H         3.33965453892748    3.00704648881753   -0.00869911606776
