28
 energy: -47.951545342798 gnorm: 0.117604996828 xtb: 6.4.1 (79825abcba525fcdf90b791dcacef51065a7a4e7)
C         1.17301130432885   -0.06347465249950   -0.39696795780800
C         2.67439276146619    0.01178940857123   -0.22516259697169
C         3.54350306040325   -1.10528525862973   -0.19489412869613
C         3.13342551054785   -2.55578234645351   -0.39016376869964
O         3.05698181417058   -2.97556701648274   -1.75216612045116
C         4.91258603462129   -0.97484432037371    0.15292498876878
C         5.44491394980593    0.29709445380672    0.40465369217315
O         6.73295994048888    0.43030587075625    0.86466630902183
C         7.47260584651572   -0.67381720347122    1.37489165144821
C         7.94782945694117   -1.62995351201608    0.30425263203599
O         8.12083473279661   -2.82573065662723    0.53053216012274
C         4.64445112566514    1.42026295421822    0.18257765356696
C         5.26416657581557    2.63204099042600    0.66011924275060
C         5.85836985943365    3.64165652578403    0.89157260586794
C         3.30657457250834    1.28007606304953   -0.22707093497301
O         2.54487671385223    2.41190555920576   -0.42316125420239
H         0.88001599014413   -0.26389070543205    0.63333314698391
H         0.82452291019139   -0.86128212648454   -1.06755034337351
H         0.72334927339188    0.91537292780543   -0.60087553746243
H         2.14648585623126   -2.88585776708853   -0.08931699456814
H         3.91628314632296   -3.18582233966170    0.05292387381490
H         3.84965087659415   -2.61795493014934   -2.18734403971724
H         5.55699227653058   -1.84298610891235    0.08654900341696
H         6.94501712725421   -1.28531136224487    2.11017922819830
H         8.31820720845533   -0.17699609511239    1.86304685937140
H         8.13323334963883   -1.27687761313853   -0.72431093993428
H         6.24341299313549    4.56438018439676    1.26803656337087
H         3.07528453914114    3.22632430074905   -0.42546633112525
