28
 energy: -47.946096180592 gnorm: 0.125210594984 xtb: 6.4.1 (79825abcba525fcdf90b791dcacef51065a7a4e7)
C         1.33845088486142    0.15695183999367   -0.88415248599356
C         2.69751994798241   -0.08793818055875   -0.26585790127785
C         3.67873027183814   -1.08413026179544   -0.48710964651750
C         3.28086877032244   -2.23323371921778   -1.39897756400786
O         4.11432543235226   -3.38665908954369   -1.28909981679920
C         4.99266028276144   -1.05441533138887    0.04682489435153
C         5.44169934242539    0.05962936546697    0.76920769392024
O         6.72105400062781    0.38305042540288    1.15270454358694
C         7.61370394238052   -0.70955815575051    0.96329412159588
C         7.81330778808042   -1.01154702619237   -0.50478730041211
O         8.32981535850062   -2.03224383960721   -0.95469193012408
C         4.50732778639502    1.07521135750593    0.98625371791519
C         4.88926553656811    2.33704470571734    1.57140272840243
C         5.01480475336641    3.41798173307570    2.06312091223925
C         3.20705038789870    1.02158894318730    0.45354241738718
O         2.41748302791013    2.15073786877990    0.48930753589280
H         1.22126485095478   -0.32295348499783   -1.85548740088974
H         1.28491861594919    1.22219520946726   -1.14875128902198
H         0.51726394522997   -0.11514161706093   -0.21070316555045
H         3.15984418307338   -1.94122802434376   -2.43512145894103
H         2.27837473182991   -2.52582670026162   -1.05906848845809
H         3.63821818098003   -4.14720561524878   -0.91429141933005
H         5.69239766843135   -1.86616572245563   -0.11054163256045
H         7.35731095589721   -1.53665164663326    1.62895302825178
H         8.54670806412899   -0.20735708802994    1.24162087707911
H         7.24638255305733   -0.33941283583483   -1.17097918349610
H         5.29948179751684    4.28012664568856    2.62620829689294
H         2.56609704404541    2.69042990907805    1.28382754021957
