28
 energy: -47.951649483514 gnorm: 0.116327420275 xtb: 6.4.1 (79825abcba525fcdf90b791dcacef51065a7a4e7)
C         1.14337902674858    0.15533945693748   -0.85967964677951
C         2.54751800928579   -0.04198145401369   -0.33167757134481
C         3.24807632039584   -1.26428725949455   -0.19271268923205
C         2.63355854660719   -2.64873442486151   -0.31884576325316
O         2.38857625758749   -3.31245036976384    0.92074208276436
C         4.63483686361171   -1.26340667897477    0.10607745800483
C         5.39922097568234   -0.10324494897155    0.29130771355575
O         6.69030047008526   -0.05046412955073    0.75901196499921
C         7.55113025319926   -1.08575907792969    0.29681051096103
C         8.93249037843928   -0.49711956124543    0.11890672532214
O         9.81876759849628   -1.18143344686750   -0.38828498006710
C         4.70865555966362    1.10381811096847    0.15832605969634
C         5.28939779785238    2.32375846191759    0.66328465805959
C         5.52969676722641    3.47062190801929    0.89335499812594
C         3.34380245305966    1.12036562636703   -0.17972742934661
O         2.73172983758341    2.34679218750479   -0.32435815260235
H         0.50845448254329   -0.72506091209699   -0.76324720749431
H         1.13691341200976    0.52107124908797   -1.89593256482479
H         0.70578076742855    0.95165137584971   -0.24623696863832
H         3.29459901243375   -3.40483164137176   -0.72486416686536
H         1.67776459191488   -2.66337179941489   -0.85957377448151
H         1.81626954175958   -2.74485232532354    1.46469791723593
H         5.12959024003386   -2.20519774819732    0.30999903069366
H         7.32528574916926   -1.58835074620682   -0.64622642251567
H         7.59450985038322   -1.87395932610771    1.05643341861727
H         9.09724802022028    0.55596330875487    0.40325089114558
H         5.67234061269607    4.36131013911214    1.46583161917709
H         3.20230269573140    3.11260884613033    0.04537376200144
