28
 energy: -47.951453834784 gnorm: 0.119929789519 xtb: 6.4.1 (79825abcba525fcdf90b791dcacef51065a7a4e7)
C         1.38904289651521    0.19575159752594   -1.00976111645916
C         2.75919999055370    0.10976363713960   -0.37367649705791
C         3.44476435863927   -1.11721578699396   -0.20442022353398
C         2.78590791851246   -2.43552331718418   -0.57618502562031
O         3.37752519520896   -3.05360711217162   -1.71858365584393
C         4.75610171526251   -1.08320525220739    0.33559715035945
C         5.35266399104957    0.09772880096907    0.79828146479888
O         6.64614931186675    0.13523267450130    1.26078393244973
C         7.36364314473936   -1.07007083141872    1.50355910531286
C         8.07911054150200   -1.46959473894162    0.23281558976192
O         8.70718376094637   -2.50526142616375    0.02320935520385
C         4.68850754416257    1.32095311348130    0.67918301151936
C         5.25911663844924    2.64564436447264    0.66930626200779
C         5.38020359962454    3.83331122962446    0.64179104323609
C         3.42531907256543    1.28202078425551    0.06256548752415
O         2.65862595193463    2.42294869831255   -0.03812320769213
H         1.40732747220576    1.07563854117983   -1.65241020452974
H         0.62508155629072    0.20814924453642   -0.21993136713940
H         1.26478821425261   -0.66538927084616   -1.67677986399650
H         1.73480256296400   -2.27765098936948   -0.78537945368726
H         2.81267496238158   -3.08745771185765    0.30722212641979
H         4.29978479635203   -3.31912067592545   -1.56196232042013
H         5.29945976542507   -2.01010141249012    0.47329560861162
H         6.75468880709694   -1.87670878914828    1.91760330881574
H         8.17374751360574   -0.94069978751849    2.22961862430758
H         7.94666653881454   -0.77983231410861   -0.61787036833440
H         5.34644299025109    4.89987748054788    0.58983986809247
H         3.29040913632956    3.15931007152710    0.01877671951372
