28
 energy: -47.956357195615 gnorm: 0.106945537975 xtb: 6.4.1 (79825abcba525fcdf90b791dcacef51065a7a4e7)
C         1.46999444962545    0.03717700650125   -1.08772847732737
C         2.79325019619537   -0.03397848747762   -0.35748251190136
C         3.29621575653141   -1.24596350389887    0.17378265758732
C         2.47693145169186   -2.50598718495933   -0.05282093564259
O         2.52305397473995   -3.05762197136461   -1.36837594791902
C         4.54788109288069   -1.24038485925589    0.84137829040462
C         5.29560057580948   -0.06290792139996    0.97933559980244
O         6.49939795556955   -0.04042723304655    1.64174472764972
C         7.42977169392360   -1.03942724226369    1.23813919821673
C         8.14463764645510   -0.68712154075506   -0.04683138337565
O         9.02820050905736   -1.29435980616124   -0.64815873761903
C         4.79574204755888    1.15285849087944    0.50645141886597
C         5.50149272859830    2.41060767403026    0.52840988279603
C         6.02100477333038    3.48085526247246    0.42521560207365
C         3.54252948902902    1.14740154682057   -0.13136244291205
O         3.01642036195469    2.35016898011952   -0.55116328798205
H         0.66744355626450    0.03450272526505   -0.35054591984946
H         1.28102112878132   -0.91708389127595   -1.59890055094607
H         1.24038901857877    0.84975009860064   -1.78695886908232
H         1.42161064877591   -2.30899837608034    0.09209926296482
H         2.88336622303842   -3.26155634893070    0.63279495231573
H         3.27268851265325   -3.65677416210058   -1.52539562640337
H         4.86008747196581   -2.18732113196489    1.26466803581683
H         6.92562421911981   -1.99980023537350    1.10991352283084
H         8.11883061679809   -1.09499472052570    2.08800885909560
H         7.78702557088754    0.29177714382889   -0.40856496691253
H         6.43481461245933    4.45498660784116    0.57092700510472
H         3.45646412487104    3.03958981264825   -0.02611465343123
