28
 energy: -47.950735625944 gnorm: 0.124862064682 xtb: 6.4.1 (79825abcba525fcdf90b791dcacef51065a7a4e7)
C         1.06962421345514    0.29814395077570   -0.59899136638392
C         2.57665398050376    0.24076805889365   -0.47693672818926
C         3.21770003724931   -1.00496327461361   -0.27361896394089
C         2.48704567938819   -2.32631640898371   -0.44799138729148
O         3.27912376004043   -3.48341074208691   -0.18179928661784
C         4.61730504083617   -1.06269460584409   -0.04966786916151
C         5.39445673230335    0.09054615054143    0.12537382196647
O         6.74718151437245    0.13276243546925    0.36364427001713
C         7.42271516232304   -0.88848301222280    1.08973362640001
C         8.44753396578886   -1.50323190142597    0.16337934420745
O         9.28113528622683   -2.30409112250726    0.58140993778684
C         4.67936106234907    1.28966065246809    0.07711855462894
C         5.32015252601352    2.43437515067791    0.67671361790644
C         5.82566404895998    3.26465763135224    1.37029911101418
C         3.36867225726407    1.41435038662353   -0.41676942654284
O         2.66797369941191    2.60084449242535   -0.44720503179163
H         0.60997670448449    0.01431294091593    0.34742151082607
H         0.73315529451600   -0.43600499529546   -1.34426692527550
H         0.76060354387014    1.31464260163540   -0.86946049455257
H         2.08049324635836   -2.38619685851068   -1.45030765617524
H         1.70517937815039   -2.40770426788417    0.31895335237668
H         3.93049158705565   -3.41043316517941   -0.90012003439936
H         5.02544685417894   -2.05766070999370    0.07993942629358
H         6.89508457708257   -1.70912605160081    1.58072624255247
H         7.96163161061708   -0.31761033240785    1.85382905798234
H         8.29598359278961   -1.26956936082963   -0.90405426871922
H         6.13504417317383    4.10218596711147    1.95701241635848
H         3.24992984508903    3.35042267663765   -0.23726396173145
