28
 energy: -47.947858999681 gnorm: 0.121289620043 xtb: 6.4.1 (79825abcba525fcdf90b791dcacef51065a7a4e7)
C         1.21949393495277    0.03621056011200   -0.60419663610262
C         2.69356081023452    0.00834620452437   -0.26408125001611
C         3.53443793858811   -1.10976511340944   -0.48059324089484
C         3.12220520172442   -2.40401022774135   -1.16267050286508
O         4.22519045461698   -3.15812185150077   -1.66451949167910
C         4.89195801685122   -1.01832925866151   -0.07914599751517
C         5.31245490109994    0.12379071367101    0.61606111167442
O         6.59554208970295    0.36157592402440    1.04683347810050
C         7.39319298953636   -0.81748742914894    1.05434274845808
C         7.95304437790631   -1.24101374891138   -0.28487116774512
O         8.81289762815669   -2.10832322183297   -0.42430895709056
C         4.53188076703977    1.28137978197501    0.66357468758513
C         4.96022920356184    2.50403932860947    1.29770437022413
C         5.33748370753319    3.46616561711705    1.89600510135512
C         3.19489871856648    1.23829251667825    0.22998443427433
O         2.39731800182669    2.33429844179398    0.47960228064098
H         0.85907392151859   -0.92639867934054   -0.24223796516477
H         1.12598231702925    0.10531735396824   -1.69694614868194
H         0.82311448227900    0.96640587472172   -0.18047875831713
H         2.53824312934999   -1.96328306813710   -1.96157996328964
H         2.57129582589962   -2.94640522191363   -0.38263866921251
H         3.91813493961870   -4.02980284950682   -1.96697546642421
H         5.43912062550406   -1.94844720727355   -0.17310884836911
H         6.71757384545267   -1.61784216436424    1.36401008202865
H         8.18827159070565   -0.67999225373472    1.79536466358012
H         7.40121425283210   -0.80757305560498   -1.13610139229846
H         5.58417079388475    4.34029969350479    2.45853276089953
H         2.84158670400137    2.89981746174063    1.13338299517146
