28
 energy: -47.952497033052 gnorm: 0.112938161539 xtb: 6.4.1 (79825abcba525fcdf90b791dcacef51065a7a4e7)
C         1.08646195750625   -0.10245793854046   -0.29329117952552
C         2.56950275692341   -0.14775207205821    0.00313160507370
C         3.30952377901289   -1.29776898283882   -0.36286661124023
C         2.64606469748225   -2.59768250998001   -0.78746347081758
O         1.47582921447280   -2.94014887511249   -0.04558820241282
C         4.72473607800231   -1.23421506311622   -0.28859549391306
C         5.40756676278850   -0.04754292748735    0.01160454490013
O         6.76931630378117    0.13663047447386    0.02333892099260
C         7.68038568070748   -0.91420240129479   -0.28029998192794
C         9.01538810796147   -0.44110463070033    0.24908555955510
O        10.10377692172961   -0.99781792636716    0.12064753235846
C         4.68373375532679    1.08131214963805    0.40316289403502
C         5.23700466233797    2.36950606535729    0.74220113123298
C         5.87244256741685    3.36733888882630    0.90505087667704
C         3.28052936307711    0.99750654916726    0.44020410629621
O         2.51238825780689    2.01884280779534    0.95644488459232
H         0.83650208732265   -1.11190301386876   -0.61898108553777
H         0.89061646419208    0.51631171116107   -1.18007769694291
H         0.47650338590381    0.27147880500371    0.53739448873914
H         3.38688250236565   -3.38708882580564   -0.74828313392403
H         2.28153632663303   -2.61893878182492   -1.82322906250929
H         1.56478288915705   -2.48625856909298    0.80978382303971
H         5.26221128472184   -2.17463763961827   -0.29641292685259
H         7.74400465702321   -1.16678153839138   -1.34099748251709
H         7.44098190218197   -1.79260602783149    0.32901215613256
H         8.97053719042449    0.54326084277993    0.74506260169513
H         6.59108988517690    4.10071175893610    1.20019920338891
H         3.13133793049209    2.65317816529548    1.35536294899998
