28
 energy: -47.947092978727 gnorm: 0.120550226163 xtb: 6.4.1 (79825abcba525fcdf90b791dcacef51065a7a4e7)
C         1.40974605042978    0.05115994936341   -0.78566197569848
C         2.84103383925002   -0.08411193872052   -0.31402139343320
C         3.48410421304484   -1.20861358322959    0.25701386134125
C         3.04051605575451   -2.59862434326922   -0.16882094108051
O         3.29454408567795   -2.63936749461236   -1.57271658498447
C         4.73967800054077   -1.08994283918923    0.90650049668326
C         5.38185618700209    0.15582875926397    0.89137144762172
O         6.64528763352202    0.32355463454072    1.40520836021227
C         7.53105828385473   -0.78463449918701    1.28764590132992
C         7.56626744379942   -1.47311714296914   -0.05810816064526
O         7.94280165586102   -2.64220509817521   -0.10782305263403
C         4.71756318418523    1.28440516364103    0.40496002600097
C         5.30454305307034    2.59479496895536    0.54219119601305
C         5.71658438761782    3.70711939610369    0.67977036117224
C         3.42595838267696    1.19538766925563   -0.14386684382244
O         2.87637739244467    2.27687429336448   -0.79809958195683
H         1.34012309614935    0.25247169159664   -1.85438057121223
H         0.91943762539029    0.78998410642825   -0.13654089168721
H         0.91845025452307   -0.92010401802377   -0.65454530476454
H         2.01315399119078   -2.83969841512588    0.07596249800684
H         3.70389857266175   -3.37618327738349    0.23301095218119
H         2.96176774594069   -1.86999544494712   -2.06558271842718
H         5.31506077892815   -1.98469491471323    1.11067865796032
H         7.18618202946714   -1.46349409582869    2.07067387268816
H         8.57607000715273   -0.47894524888000    1.40877790818668
H         7.42893383435760   -0.98341786930810   -1.03704345803964
H         6.16639651217525    4.65898889522598    0.86147280538298
H         3.52094110576798    3.00421542544878   -0.80942039898242
