28
 energy: -47.949611443974 gnorm: 0.122207456683 xtb: 6.4.1 (79825abcba525fcdf90b791dcacef51065a7a4e7)
C         1.20193398974900   -0.23324301473076   -0.26560518758925
C         2.69867854165706   -0.12660149540572   -0.07141102491976
C         3.62478183889199   -1.19504565878464   -0.00152211317392
C         2.94645686058562   -2.54596700376921    0.15697832290007
O         2.51971676939472   -2.60461967837933    1.51770091817616
C         5.03512972896665   -1.09617991444092    0.11477728977406
C         5.56539779126102    0.19474140951344   -0.01524767112377
O         6.90297359409150    0.49442054128756    0.08223431468985
C         7.84657095457480   -0.44621655888181   -0.41908354238029
C         8.08253337464205   -1.70416281487342    0.38602202872515
O         8.92032610601918   -2.55064842027177    0.08174963777364
C         4.65606259445727    1.25522507577736   -0.02230751616919
C         5.19470211163101    2.59056647769761    0.06272198311420
C         5.68260493326197    3.64924551329010    0.32179969135009
C         3.25400802362628    1.17692943414980   -0.09640718475216
O         2.39480521768239    2.23959752949915   -0.27579530692453
H         0.70160110998105   -1.02067294428113    0.29755937071071
H         1.07145081862208   -0.36265732371157   -1.34904773172912
H         0.79710435186267    0.72812161512977    0.07174899712844
H         3.66064902297836   -3.35750171300367    0.08734051189687
H         2.08349642423992   -2.72748169646163   -0.49761684137858
H         1.83483823756366   -1.91588323917067    1.56432691445948
H         5.50148923105151   -2.06585857324484   -0.00999227243015
H         8.73831523942282    0.17847224613157   -0.50556367223143
H         7.56386461082532   -0.78155312239328   -1.42297342353310
H         7.37009821920936   -1.83988708421863    1.21728329148431
H         5.95103376901738    4.66553540967726    0.51285747821844
H         2.96968192715295    2.94065598854914   -0.62600877275387
