28
 energy: -47.954393792464 gnorm: 0.108829748163 xtb: 6.4.1 (79825abcba525fcdf90b791dcacef51065a7a4e7)
C         1.09651858895408   -0.07080591251263    0.22791875622452
C         2.56984311450315   -0.16793229664249   -0.10254963662303
C         3.31480552885239   -1.29681597864686   -0.52061344656422
C         2.49387754387349   -2.56563228509261   -0.68314978084878
O         2.19970486363699   -3.17483513076671    0.57361095323161
C         4.72936777603319   -1.23141562336285   -0.60497933199208
C         5.45936503170351   -0.05725480092023   -0.37472088526122
O         6.81048167418905    0.09460964067870   -0.57432141239447
C         7.65056741257461   -0.93295519994149   -0.05967572517278
C         8.74956595566245   -0.39901740413511    0.83106254434700
O         9.61670553173257   -1.05803581721224    1.40095719864416
C         4.72169206192367    1.07735799154887   -0.02822647979481
C         5.42395573307787    2.30500886355470    0.25496653671314
C         5.97532247196945    3.36423793559620    0.25449643159885
C         3.31973902050215    1.02261450318092    0.06616012628179
O         2.61378296729349    2.15732176486117    0.40341157918291
H         1.01309989950472   -0.10296589875945    1.31398517619735
H         0.51106526864944   -0.86351494800744   -0.25837175510687
H         0.79676220113518    0.92644721390688   -0.11493565123413
H         2.87172986254843   -3.38318072132385   -1.28510544959490
H         1.56896331037129   -2.18538457896275   -1.13711946680797
H         1.56128682685578   -2.65589108472548    1.09198336292462
H         5.15660525058779   -2.16053674469658   -0.96210314820871
H         8.01177511044058   -1.49057704691225   -0.92657229388471
H         7.15001241491350   -1.71376700135935    0.52337316380180
H         8.64178495314905    0.68133348399182    1.02652463904020
H         6.49966261473806    4.21050644521208    0.64218096940294
H         3.30302106529887    2.83461555092394    0.50752516755850
