28
 energy: -47.950113686788 gnorm: 0.114027518324 xtb: 6.4.1 (79825abcba525fcdf90b791dcacef51065a7a4e7)
C         1.18424546403696   -0.09963910489303   -0.21147289741992
C         2.69112464256904    0.02814688203085   -0.25957608159718
C         3.55337303082521   -1.07471560210764   -0.47016277425469
C         3.09067912929749   -2.37099368805746   -1.11499849288095
O         2.57287467703096   -3.28823555036978   -0.15184786599657
C         4.91909600346398   -1.02223870305605   -0.09012581232343
C         5.53727531687836    0.17638853614095    0.29160138765240
O         6.88797077404562    0.40047875447435    0.40917991849361
C         7.61125829032437   -0.68602554489597    0.97738525882110
C         8.22288199279675   -1.60872206429802   -0.05259028043271
O         8.90481208036109   -2.60477563762361    0.17949777361793
C         4.70677603888702    1.29864885989247    0.34027043372821
C         5.22181207227475    2.62439366802660    0.58034917964987
C         5.38062088031687    3.75971871427398    0.91469710617729
C         3.31683193829834    1.23640789483996    0.13640904496169
O         2.59840045671471    2.40929426898005    0.22510407578119
H         0.76497168743327   -0.30855242368623   -1.19539257461953
H         0.61253193344343    0.72345420843069    0.23939592556296
H         0.90223385123675   -0.85295208957105    0.53344711630075
H         3.95717663092468   -2.87150030127517   -1.52994868399033
H         2.34006309767916   -2.20783655531639   -1.89991788191907
H         1.86746574392042   -2.75421891087330    0.25165546119920
H         5.56291743640244   -1.85887929631797   -0.33274035626662
H         6.94656857320069   -1.27286424562435    1.61513968222417
H         8.38512083106251   -0.27028112442686    1.63195513873560
H         7.92257175930468   -1.29147549062874   -1.06558020707265
H         5.99778326575263    4.61167528567663    1.10093048775544
H         3.13891157193985    3.21434765440422    0.29107710966746
