28
 energy: -47.950135593956 gnorm: 0.122136100749 xtb: 6.4.1 (79825abcba525fcdf90b791dcacef51065a7a4e7)
C         1.11360684912323   -0.01310121215387    0.28213802025423
C         2.60163075206166    0.12103456810301    0.04313906098140
C         3.34405577538665   -1.08349385631130    0.08831739178121
C         2.78008641511889   -2.44373077987969    0.46505299443283
O         3.56612438559896   -3.58955024330923    0.13893142018912
C         4.74698364453879   -1.04111002873541   -0.11754221760440
C         5.43337840997350    0.14833928851045   -0.39797249157475
O         6.79716751824920    0.28176529397204   -0.50139461791925
C         7.72089979895917   -0.79971127528144   -0.44122125022282
C         7.60352944029223   -1.36257019408074    0.95724793822605
O         8.36978066102900   -2.19830404370483    1.43203655473883
C         4.73681438650856    1.35777797064227   -0.33778433383324
C         5.44103267549348    2.60579743674077   -0.50217173616090
C         6.02166156408179    3.64921597700109   -0.49123707225284
C         3.36845838652625    1.31122375409416   -0.01714034939675
O         2.63283285767963    2.43167709892620    0.30397090822367
H         0.98365632752386    0.32843766501637    1.30878171241885
H         0.79507023141866   -1.06393055353492    0.23839119975987
H         0.52901939925183    0.64029762051693   -0.37607494579892
H         1.78022134848894   -2.53555427156788    0.05842448242392
H         2.79695954262515   -2.40240379899212    1.56239091552102
H         3.70945301179098   -3.75126689034518   -0.80916936473913
H         5.26281813768947   -1.99333944810787   -0.14010881981901
H         8.71927722509764   -0.36907591984399   -0.54475139847909
H         7.50850779837387   -1.50817265349845   -1.24939233106043
H         6.72866144941884   -0.99558981822285    1.52019697612090
H         6.45690495869413    4.62325922281996   -0.54785168560084
H         3.09335306747890    3.28754098835991    0.30978462129544
