28
 energy: -47.949730136186 gnorm: 0.118599938907 xtb: 6.4.1 (79825abcba525fcdf90b791dcacef51065a7a4e7)
C         1.26783979492154    0.15216685470894   -1.11480919319424
C         2.63112676049802    0.02497630442982   -0.47091537540501
C         3.31649455424586   -1.18495208145821   -0.20545542731816
C         2.71154533198100   -2.56721435240764   -0.38882140230339
O         2.53071736785758   -2.98169846967201   -1.74256339281112
C         4.63074457002574   -1.21354552295788    0.32775228796454
C         5.34984235435162   -0.03988129813570    0.59228819053914
O         6.57675178004488   -0.04853229561759    1.21118863975664
C         7.51614373579127   -1.11809291183248    1.20243866372602
C         8.53784300551477   -0.80087700052721    0.13388511005835
O         9.65666141706433   -1.28982930721305   -0.00819667206370
C         4.59531859674739    1.12632540729416    0.44321849665744
C         5.17826900942059    2.31350403817862    1.01878336858386
C         5.63833861674719    3.17198000841280    1.70967170335168
C         3.31212926589831    1.21847732220871   -0.12450604201475
O         2.64483975528798    2.39754094373544   -0.37789650609422
H         0.63825778896931    0.90065914636097   -0.63426887892994
H         0.74154584340014   -0.81247867974332   -1.10504533667349
H         1.49587080466404    0.49637654497234   -2.13040674151413
H         1.77438755037322   -2.76672108676744    0.11659011495093
H         3.48963281079529   -3.13780964669308    0.13572031958099
H         3.20043383532782   -2.50059877771079   -2.25794034989881
H         5.10177568319308   -2.15983836266049    0.56438467968690
H         7.02913129198057   -2.07985640239948    1.02707433055012
H         7.97922207266298   -1.19355815285971    2.19240423468709
H         8.18973452869866   -0.03011838761202   -0.57444522565360
H         6.17990472607611    3.94322597348084    2.21294904649577
H         3.05186781050146    3.09760339225847    0.15955711374699
