28
 energy: -47.947235740991 gnorm: 0.110470026970 xtb: 6.4.1 (79825abcba525fcdf90b791dcacef51065a7a4e7)
C         1.19101481533802    0.11917214335233   -0.30449791546059
C         2.69957780602236    0.00371955830427   -0.31987447015478
C         3.46256926975013   -1.18402289435830   -0.21387172836030
C         2.77291738505942   -2.52883681280440   -0.37540013539342
O         2.30904864291890   -2.82089145565252   -1.69321768230513
C         4.87664272894862   -1.17330399207760   -0.10134392610929
C         5.50149598307091    0.06819621872388    0.07977539849478
O         6.82170384824435    0.26422226711846    0.40695171021859
C         7.40667902981796   -0.77635135266451    1.18251880116419
C         8.54211616455284   -1.54386378617116    0.54376281546863
O         9.19417495038646   -2.37861651080175    1.16748026673882
C         4.74172817448145    1.23888999654765    0.01817251663055
C         5.25527723935782    2.48870345234020    0.52288321706401
C         5.67556510783085    3.45071402725162    1.09197502359194
C         3.36226913807268    1.25461700082109   -0.25426726627048
O         2.73203630755502    2.47215668271694   -0.39595971899065
H         0.70248227279036   -0.07153510888838   -1.25974652331857
H         0.96964074221145    1.17708418006639   -0.10590962790536
H         0.78175641825674   -0.62043077362124    0.39365100832120
H         1.95324994772592   -2.54970387709128    0.33256759608412
H         3.30805860379706   -3.40378761861054    0.01731870116803
H         1.74935669698395   -2.04021821783431   -1.84449454911168
H         5.38666222440226   -2.12641477666729   -0.17059184114270
H         6.64920653024555   -1.40905783317334    1.65032293406915
H         7.96406574030630   -0.18287709017566    1.91551043807823
H         8.93496073611471   -1.23426384801749   -0.43949769767715
H         6.01058061958605    4.26381689895730    1.69863027825699
H         3.46091326129193    3.11143387080401   -0.32755848009798
