28
 energy: -47.942666202958 gnorm: 0.132452040385 xtb: 6.4.1 (79825abcba525fcdf90b791dcacef51065a7a4e7)
C         1.19961670285274   -0.09786170323439   -0.85548465058465
C         2.63471928250192    0.05280069728280   -0.40039185708151
C         3.50300127537818   -1.06355515426455   -0.46332588205776
C         3.06228900326387   -2.44411200753139   -0.92166102628422
O         4.12561929985077   -2.92696609892702   -1.74220586191172
C         4.85114446286844   -1.02348981898359   -0.02368299158649
C         5.41580604681252    0.16142432205579    0.46795137045550
O         6.65725791497546    0.42769266901443    0.99361075135711
C         7.49656821429818   -0.72097590517597    0.94249848475969
C         8.17061243391963   -1.05356828701511   -0.36950331778940
O         8.69774682990026   -2.12952885589225   -0.64419298475031
C         4.52647104667965    1.19894573889894    0.75812118597592
C         4.88794680276489    2.36347793343522    1.52863999345909
C         5.10453283957841    3.33731641448485    2.18491799271546
C         3.19147402103155    1.13839669800215    0.32052005722129
O         2.42382962368189    2.26314421539253    0.53344762771417
H         0.94814896989051   -0.75534086049527   -1.68736104505752
H         0.93082338307245    0.96363419198943   -0.94821158140833
H         0.62714113728615   -0.39282365374856    0.03175038312926
H         2.16650948332854   -2.33524523757731   -1.52102363049250
H         2.89985852913841   -2.94435242892572    0.04245462835155
H         4.04435021916943   -3.88447729461609   -1.89106188345795
H         5.43954521431304   -1.89177858072806   -0.29422783867336
H         6.86577013444316   -1.58503558342972    1.16253812083731
H         8.32402915081918   -0.63140034573891    1.65485583968714
H         8.17778035193984   -0.26353399930665   -1.13942192471037
H         5.45820073716725    4.17629679565479    2.74387523913087
H         2.93382979415956    2.77358017545684    1.18457789314481
