28
 energy: -47.958167095510 gnorm: 0.106679852535 xtb: 6.4.1 (79825abcba525fcdf90b791dcacef51065a7a4e7)
C         1.31784578733531    0.08595193053940   -0.79638651489190
C         2.71724676956760   -0.04968770653960   -0.23727399422954
C         3.60540909511974   -1.12915502667725   -0.46097618533693
C         3.17846093380674   -2.28091590986206   -1.35618440316730
O         4.00055084211244   -3.42511009952222   -1.12792785757253
C         4.96473621073713   -1.01025854407730   -0.07306567531088
C         5.36719087134014    0.20103355317832    0.50604594381102
O         6.64732500238051    0.47153070048736    0.92617361057611
C         7.51635776012978   -0.65299408251336    1.00814805935879
C         7.89014954003902   -1.25792115915732   -0.32626003746564
O         8.54222604157755   -2.28152429168721   -0.52132180507006
C         4.47954210236135    1.21769882699059    0.86665283910109
C         5.00576492815352    2.47226394563977    1.34587626107666
C         5.24816846081205    3.57439756533875    1.73640631758636
C         3.13074753809529    1.09517307180282    0.48834258128500
O         2.27587388097365    2.13046504012161    0.79984636630011
H         0.85778680037724   -0.88115900263394   -0.99781981746820
H         1.41927219625053    0.66605029042756   -1.72419050406104
H         0.63105610270478    0.72042075571162   -0.22394781567625
H         3.24299876182282   -2.04541570241845   -2.41159094475870
H         2.12842629195748   -2.52882186907439   -1.15096985299993
H         3.85811497954443   -4.10387612537600   -1.80952830824124
H         5.64742226230452   -1.83810804332753   -0.22118821907668
H         7.08995208299505   -1.39913291665094    1.68222359163698
H         8.47730673035880   -0.34119101964690    1.43185115050397
H         7.67669219279340   -0.53957343596885   -1.13582333069557
H         5.69823531530290    4.42107755744393    2.20754863698105
H         2.70924313097648    2.80358381520736    1.35095240658186
