28
 energy: -47.946310607141 gnorm: 0.129563157676 xtb: 6.4.1 (79825abcba525fcdf90b791dcacef51065a7a4e7)
C         1.25961098709799   -0.06017719363048    0.24158221962704
C         2.76636148175540   -0.08457485526752    0.10580394161121
C         3.54673914366431   -1.23212770470943   -0.17394212325389
C         2.93847713953163   -2.59628044616881   -0.45561616875761
O         2.56796902245959   -3.26705550798821    0.74850083872595
C         4.92215858139995   -1.15581573672128   -0.51273264520399
C         5.54264306119318    0.09584270015390   -0.39907192377035
O         6.83184256263646    0.35053813816904   -0.80096027638128
C         7.69511606371428   -0.75628240073704   -0.56389299369517
C         7.76171912959236   -1.08866143302201    0.90967079708201
O         8.63392707958629   -1.70865725552800    1.51454657194440
C         4.78377576579411    1.21112567906004   -0.03598752419548
C         5.53570538612116    2.42677692383849    0.15712676194130
C         5.81975202106864    3.58271520924189    0.06175415618505
C         3.39179058511417    1.18582381051557    0.16178779035673
O         2.60210073773815    2.28778943182453    0.41025259100720
H         0.91503215566664    0.45631598402147    1.13714541211566
H         0.87320349667720   -1.07022486873078    0.43681185165304
H         0.73246493596922    0.26790286375969   -0.66196487068005
H         3.72459527458925   -3.29159056402640   -0.72407579456182
H         2.13702756982644   -2.45725593189632   -1.19351446848787
H         1.99287241561767   -2.68102202419507    1.26947983724596
H         5.50790568391275   -1.99807808302961   -0.86033846785883
H         8.62157686584791   -0.35876077968682   -0.98409500625341
H         7.37664277259030   -1.61402584047795   -1.16640385572244
H         6.85684832828460   -0.77792099438983    1.45887879939612
H         6.31169993240827    4.47067479246349    0.39479667227992
H         3.07623202443917    3.13258448737858    0.33191679611346
