28
 energy: -47.948890244122 gnorm: 0.131603491202 xtb: 6.4.1 (79825abcba525fcdf90b791dcacef51065a7a4e7)
C         1.39288708683051    0.22849108402118   -1.18257132883582
C         2.67910890833568    0.06907580133147   -0.40183561612517
C         3.33756028349514   -1.17552069707793   -0.25504981830910
C         2.57676087968323   -2.44219729818757   -0.61135067058809
O         3.47148159295056   -3.51079617547503   -0.91905914238034
C         4.60647405846282   -1.17693509238902    0.37917175127619
C         5.27360053929851   -0.01879667080833    0.80134024446462
O         6.56138368275848   -0.03946967812036    1.28051302489387
C         7.47327607365226   -1.11227141432579    1.07065015003808
C         8.23736544044738   -0.86029042030634   -0.20957445876274
O         9.36642091499301   -1.28004040413634   -0.45464570592792
C         4.59639681633252    1.19217058611639    0.63849252358513
C         5.22383841393019    2.44642741445463    0.97562166168534
C         5.76989046142669    3.42963568595431    1.37699478066346
C         3.26476449573790    1.21713969368023    0.18737179830507
O         2.38427380968971    2.26407753270589    0.01905552685928
H         1.44707681521132    1.10517953141050   -1.82756284175965
H         0.60444813238485    0.28032936914604   -0.41883153071645
H         1.14401957602130   -0.67134262614828   -1.75727219712073
H         1.80528845949144   -2.33173057383307   -1.36377067163566
H         2.09377144440006   -2.74720842494576    0.32664322628877
H         3.93649399035462   -3.22222642406607   -1.72285105435277
H         5.04807406392807   -2.16542945722483    0.41386565096294
H         7.01773961463133   -2.08910586765784    0.89400426893672
H         8.24587775225169   -1.19015850346702    1.84342995571101
H         7.68633092858410   -0.19746135822981   -0.89805017890903
H         6.32361776883700    4.31879107266111    1.58721143159352
H         2.78254058027394    3.09788920539066    0.32031511170801
