28
 energy: -47.955465756968 gnorm: 0.123789839027 xtb: 6.4.1 (79825abcba525fcdf90b791dcacef51065a7a4e7)
C         1.47830627901055    0.17238077210800   -1.21918989543389
C         2.84521312261807    0.03008841396894   -0.58622337946924
C         3.48567957836882   -1.18150577462535   -0.23130515506239
C         2.80002180767284   -2.48821072421593   -0.59549086372012
O         2.83333683781977   -3.37608311550014    0.52150776761793
C         4.77029024509735   -1.21474244918847    0.36957080235990
C         5.36760956666607    0.00025195556941    0.73229218122870
O         6.63284440738488    0.06462512158876    1.26469827354456
C         7.59200305447458   -0.94079206290587    0.95543349728771
C         7.91555032776034   -1.07166024710064   -0.51578800544639
O         8.78374989288397   -1.84609964396777   -0.91263730365132
C         4.68486106784539    1.20317939271448    0.53636866590790
C         5.26149064507239    2.44336375822401    0.99456106623771
C         5.39217038587920    3.53225814853372    1.46700528526813
C         3.49000953180163    1.23287774277914   -0.20445912512184
O         2.91649293100639    2.43990615382656   -0.54185233015375
H         1.49503872317218   -0.43190137000084   -2.12588517475571
H         1.35297174557668    1.24337174867419   -1.43106545304788
H         0.82703783636936   -0.06349979376170   -0.36940956488612
H         3.24819087355828   -3.07308473794329   -1.38957859503427
H         1.73534207154207   -2.24761087606183   -0.71678349893169
H         2.47416614381884   -2.96900835046363    1.32827726140780
H         5.25140608111280   -2.18369510987684    0.42428483459612
H         7.29765063888956   -1.92333202503804    1.33079287393288
H         8.49513174814856   -0.55947532160180    1.44443706437205
H         7.26701226486129   -0.40182000267836   -1.10544268720087
H         5.80973880611490    4.49630277014181    1.66105903712841
H         3.39444961815344    3.14547997469000   -0.07458511212512
