28
 energy: -47.948559011396 gnorm: 0.123521767304 xtb: 6.4.1 (79825abcba525fcdf90b791dcacef51065a7a4e7)
C         1.47040617134799    0.14670086198927   -1.11699733017636
C         2.79654153122051    0.06120730196191   -0.39354456953993
C         3.57396252706496   -1.11372728689856   -0.53236103539053
C         3.01424565936420   -2.37953889997884   -1.16059158285799
O         4.03207635585886   -3.36446184786729   -0.98435117963369
C         4.85955729839612   -1.16700501736435    0.06495690543595
C         5.31030776001016   -0.07430915829137    0.81822203014075
O         6.45194268596194   -0.10735557056451    1.58241898274794
C         7.50768542622669   -0.91641059223529    1.07514098286967
C         7.87489381331570   -0.69046964931245   -0.37413839689167
O         8.36295810532452   -1.53769112468374   -1.11913856337541
C         4.63264489689967    1.14730393917237    0.81887281013984
C         5.11577030427355    2.41743179719059    1.30246793615165
C         5.36188089337219    3.41273621013525    1.91465288664804
C         3.30264491134390    1.14785274798843    0.36227919476722
O         2.43523847987217    2.21870585111714    0.38579004881187
H         0.65548734161504   -0.24091470829449   -0.50610071259832
H         1.35137249871694   -0.34271071020476   -2.09369019686059
H         1.17011635550157    1.19719813829762   -1.20754195752645
H         2.70057346177195   -2.24701956108800   -2.18896740260865
H         2.03957892695066   -2.57169801437401   -0.69235791790157
H         3.66583739946745   -4.24361298666344   -1.18069977444880
H         5.49691946571039   -2.02975174336602   -0.08594996771794
H         7.43420200433043   -1.97597583990735    1.32978672937771
H         8.39011725120219   -0.53895673174542    1.60335594039506
H         7.60333198027093    0.29646475202938   -0.78547144165895
H         5.67145884111955    4.25143232636434    2.49959098886975
H         2.79469026231253    2.94627977902559    0.92062297343457
