28
 energy: -47.954535471721 gnorm: 0.119430043106 xtb: 6.4.1 (79825abcba525fcdf90b791dcacef51065a7a4e7)
C         1.24791265439754   -0.14363578856156   -0.66023937206147
C         2.70822672542207   -0.15833295679838   -0.26451870760581
C         3.68042112106257   -0.97373340932209   -0.89228049342207
C         3.32941296491141   -2.10897495845330   -1.84004392782075
O         2.17227018444401   -2.86528633838656   -1.48490044300021
C         5.01299229138073   -0.91574536247929   -0.40929745080315
C         5.43424523161798    0.18754352062456    0.34559868184355
O         6.76247772271994    0.43144830160400    0.60001617901372
C         7.63036815842596   -0.68520318639785    0.76234108584316
C         8.60515692957597   -0.89212428041319   -0.37488032752440
O         9.76220222726339   -1.29365112658475   -0.26981558340859
C         4.52845767925904    1.08189205316815    0.92114672803937
C         4.78055705275613    2.15428742524339    1.85222848979822
C         5.14455016030307    3.10573666291191    2.47530559074504
C         3.17483213157615    0.83834558331231    0.62829695099922
O         2.18517022133760    1.55724034002610    1.26346046309039
H         0.63292999306016   -0.55503557530062    0.13981046892239
H         1.01375801101840   -0.77454257949285   -1.52900279572462
H         0.97520030117504    0.86300523581210   -0.99820187144209
H         4.19643082699803   -2.73134876524024   -2.02562226701432
H         3.00549500277889   -1.65219931832191   -2.78480648930227
H         2.31909125235172   -3.29258841482862   -0.62382728859860
H         5.77516777229689   -1.50014612432190   -0.91019626257343
H         7.05874764109571   -1.61575770494207    0.74681507118461
H         8.15297728528691   -0.53915305855517    1.71403297033791
H         8.10698740135836   -0.78332730487483   -1.35312904612155
H         5.33421562051520    3.81230449979884    3.25388838733779
H         2.63200503904679    2.29389810583278    1.71322667724784
