28
 energy: -47.955412230793 gnorm: 0.112860477954 xtb: 6.4.1 (79825abcba525fcdf90b791dcacef51065a7a4e7)
C         1.23325816441081    0.15099579464449   -0.79091299153497
C         2.70701047514994    0.08084236087320   -0.45556143609571
C         3.36004565035716   -1.12296866427982   -0.09708023252453
C         2.80965819563042   -2.53439197503869   -0.22034220489510
O         3.11950608785030   -3.07166860809869   -1.50581539296841
C         4.70959991006933   -1.04953673223674    0.33383996240710
C         5.36130253820832    0.18064368262962    0.49665402090269
O         6.59907299858352    0.37127971082415    1.06234082493859
C         7.28416845971141   -0.81083594972496    1.46201633026096
C         8.14588214029183   -1.45019217521779    0.39666418980060
O         8.76772335623531   -2.48251213450479    0.63883197207825
C         4.69275650485234    1.35370513431766    0.13813064288426
C         5.35896547315633    2.57804615465441    0.50914802920071
C         6.14518774561828    3.29870152349876    1.04625334360841
C         3.37096950243004    1.32753561487612   -0.34100637621421
O         2.72937414756796    2.45577642188062   -0.80479634047218
H         0.72501088845063    0.98996573759762   -0.31620534629442
H         0.74300917950127   -0.78219331188165   -0.48037202843610
H         1.15409724519827    0.24174278979528   -1.88059889319539
H         1.77828511173774   -2.64712563314720    0.09121698654770
H         3.43718493386100   -3.22380718296603    0.36022647526834
H         2.58279514737733   -2.66578797157210   -2.20780737496770
H         5.16476964695273   -1.96863965977762    0.68227310885033
H         6.62612427428864   -1.61345292648399    1.80217309451924
H         7.95311609945933   -0.49540508377727    2.27021235100148
H         8.06661447729558   -1.02748035895515   -0.61921551493572
H         6.58108195766534    4.21760774555291    1.37337698086748
H         3.35199080368220    3.18826124360082   -0.66186226194089
