28
 energy: -47.954459479068 gnorm: 0.109305792790 xtb: 6.4.1 (79825abcba525fcdf90b791dcacef51065a7a4e7)
C         1.16737160005173   -0.17566079622761    0.23437384168829
C         2.67111980115841   -0.07276586746549    0.10215431504680
C         3.44521154388997   -1.21442270812625   -0.21647764117189
C         2.71596455265504   -2.54695208247284   -0.26939189558723
O         2.79482816526452   -3.17726110943592    1.00873340231851
C         4.85174088220416   -1.09197699852599   -0.35454795569569
C         5.50493839031477    0.14363407206421   -0.24887454075882
O         6.83886810179302    0.40529454786495   -0.45033093070716
C         7.69229497294810   -0.72880769663481   -0.55973114749378
C         7.93891921361137   -1.26067295476501    0.83403994755363
O         8.78824215449324   -2.11330881649147    1.08439741299377
C         4.72971310477186    1.27646502419532    0.01052043125446
C         5.40019460365596    2.55029394290628   -0.08065870459522
C         5.98461708028678    3.58300291598709   -0.21457755300466
C         3.33078845080436    1.18135723668613    0.11702069746940
O         2.67818938743812    2.39026142074257    0.22809804887008
H         0.84912494265506   -0.78752048904634    1.07810364648761
H         0.68460910061201   -0.66171181467597   -0.62487957701256
H         0.69480625620763    0.81335840517580    0.25534619823986
H         3.16640268061922   -3.16700512774380   -1.03499503330498
H         1.68492904997199   -2.40364946731343   -0.61949656335936
H         2.48808871661638   -2.50954412996087    1.64564423964517
H         5.53572883679436   -1.90253203080858   -0.57476682118214
H         8.59932925197012   -0.35353311779631   -1.03866808846846
H         7.28348407307577   -1.51576163902164   -1.20296168391805
H         7.31662727312157   -0.85544006071043    1.64983358507863
H         6.41685847873267    4.55787131714145   -0.27939452067450
H         3.14337881447694    3.14886119071147    0.61891877820818
