28
 energy: -47.945333865612 gnorm: 0.128718953368 xtb: 6.4.1 (79825abcba525fcdf90b791dcacef51065a7a4e7)
C         1.16632937593317   -0.02535582297524   -0.91873194747420
C         2.53988218767657   -0.02550762525052   -0.28416068192430
C         3.46140032945878   -1.08970592910981   -0.43386371876846
C         2.84036526309722   -2.31566523595917   -1.08315168814919
O         3.53544649340377   -3.53324531908350   -0.81580539314751
C         4.81916027608488   -1.06274480604363   -0.02381227861941
C         5.32246096608558    0.09833355409950    0.57881035639558
O         6.65989629672915    0.10138147347515    0.89452667446676
C         7.54543520865521   -1.01020022108097    0.81266890931965
C         8.51293746114105   -0.67627050429846   -0.30031463394864
O         9.59199779058186   -1.26402518659972   -0.33480331808271
C         4.45545922228189    1.19063307481594    0.66100333161745
C         4.89847848254458    2.44834041231807    1.21091732664787
C         5.54917042349210    3.27866139386310    1.77050538780695
C         3.08988038173927    1.12617988663720    0.33173410538692
O         2.26716630240628    2.19748030799048    0.60583263883849
H         0.49504620948225   -0.71501047564368   -0.40756800230383
H         1.13526944050255   -0.27667886399288   -1.98807458245484
H         0.78561253763638    0.96943232881150   -0.65917837696760
H         2.77913251834155   -2.06428235140707   -2.13508593116334
H         1.80716041180931   -2.41757329164682   -0.72503772040556
H         3.02396468425693   -4.21809271742331   -1.27944411957314
H         5.49360226341186   -1.87526793914530   -0.26520303765000
H         7.17845234901847   -2.01590874564391    0.59634340399481
H         8.07627618887800   -1.08284898326183    1.76823072974549
H         8.16292223652252    0.10968521783374   -0.99078053575722
H         5.99781856595481    4.14894762241102    2.19796182027366
H         2.80978603801220    2.93417057697870    0.93365413640799
