28
 energy: -47.953829874740 gnorm: 0.123998289770 xtb: 6.4.1 (79825abcba525fcdf90b791dcacef51065a7a4e7)
C         1.35150479510620   -0.01316042374936   -0.88421383620764
C         2.76818419725449    0.00579925130383   -0.35318837625714
C         3.49927695730831   -1.16528638599594   -0.03984110886448
C         2.81413692466404   -2.50129386791466   -0.27627879522472
O         2.58140841090037   -2.74272718341649   -1.66360017457942
C         4.78301980698419   -1.18383173901491    0.56351742725636
C         5.41824982619919    0.05803606661309    0.70068791046994
O         6.72126386471749    0.26862875531124    1.08308101532896
C         7.66776313332719   -0.77656314316775    1.27854649320286
C         8.03544594255188   -1.55689208582703    0.03669379624268
O         8.99615544661274   -2.31977939669344    0.11451685990859
C         4.68739460038206    1.23401726290109    0.51498704234270
C         5.22479095766855    2.55891499763554    0.70564469134676
C         5.51528629676914    3.70891244593227    0.84381141307564
C         3.38604896770662    1.23623533215499   -0.01780993877538
O         2.68025192345000    2.38903328113486   -0.28721756776996
H         1.07498854171331    0.92472969201481   -1.36528981584881
H         0.60669864085340   -0.27729625276398   -0.12059238677962
H         1.22545275826429   -0.79536227423291   -1.64196576057866
H         1.78924026718848   -2.52514191931048    0.07375914925365
H         3.34849171657156   -3.33990435410552    0.18991916212552
H         3.36437289001199   -2.45958184498233   -2.16598031946324
H         5.13269409327119   -2.19046004351649    0.75784363805862
H         7.50974550315141   -1.33973873339825    2.20092736053017
H         8.54952588042066   -0.15841744912644    1.47993850581957
H         7.47700415681695   -1.49226974365999   -0.91248845141597
H         5.78351480158405    4.73094749594964    0.68601377246107
H         3.33188450964014    3.04114697176154    0.02057842979702
