28
 energy: -47.958328036010 gnorm: 0.114252288876 xtb: 6.4.1 (79825abcba525fcdf90b791dcacef51065a7a4e7)
C         1.51591226802262    0.06300989053100   -1.14201955548388
C         2.82109821584623    0.05547247509415   -0.37666939643024
C         3.52702517002120   -1.13678596855417   -0.08630473611078
C         2.84855276418469   -2.49628993637163   -0.12704515587720
O         3.13147704826263   -3.23929326585617   -1.31237764668497
C         4.84289425818192   -1.04287277272241    0.43527939556889
C         5.46905332913387    0.19630210110532    0.62747464696189
O         6.77941780367143    0.43914237825847    0.96272515059103
C         7.51098948316323   -0.72522945110576    1.33087573845557
C         7.79519574782973   -1.62952882535640    0.15283861055825
O         7.96685288883155   -2.83792198558723    0.29890718076591
C         4.77264132503301    1.37543818866644    0.35140517296060
C         5.32110132915238    2.69283914289979    0.56151355170984
C         5.90108435261949    3.70120911233348    0.83129384571318
C         3.43621491946014    1.29691647328509   -0.07891655522694
O         2.61551035617417    2.38183675992695   -0.30042284429522
H         0.60318526661484   -0.33845217393664   -0.70237102155785
H         1.61653575700171   -0.49563532434398   -2.08298294471872
H         1.39613757219290    1.10762035963426   -1.45243834329987
H         1.77624783109733   -2.44541061090939    0.01815082571485
H         3.29482768188993   -3.05953228693629    0.70346064245836
H         2.65363933290806   -2.80422466498313   -2.03899783513507
H         5.31889408884065   -1.96455362414982    0.74715100230472
H         7.07338475170589   -1.29118838806054    2.15617287640904
H         8.40013180483233   -0.22410329327431    1.72895473931127
H         7.92170483763820   -1.06764686842700   -0.78804625672941
H         6.28759687949715    4.69025279915857    0.94877966511574
H         2.96092060617531    3.17818592869126    0.13676752879090
