28
 energy: -47.947149428133 gnorm: 0.129340048392 xtb: 6.4.1 (79825abcba525fcdf90b791dcacef51065a7a4e7)
C         1.46667212279297    0.10795534274789   -1.21090002387865
C         2.73781897032558    0.01009203128675   -0.39607703116703
C         3.33048035306578   -1.26593661789649   -0.23914370278957
C         2.69973876408157   -2.63375881013822   -0.44276864716546
O         2.62208932136566   -3.42687891241695    0.74131085984793
C         4.67451545889994   -1.23727997473859    0.21376863697674
C         5.33638361141575   -0.08578128981860    0.66159661481732
O         6.54784523224854   -0.04113227095429    1.30873381831071
C         7.59999231379583   -0.91681733529026    0.91802175645842
C         8.14947413637498   -0.57876187361578   -0.44949067942026
O         8.73628884654380   -1.43128358638509   -1.11271873625485
C         4.71167676078824    1.14898737781068    0.47014519522268
C         5.36429095347057    2.38393823758798    0.82999279037893
C         5.80503275066935    3.42634324748660    1.21092610288950
C         3.43229957384041    1.21179666019122   -0.11005046991336
O         2.82638421592524    2.42230084258928   -0.36931722752916
H         0.96454193836277   -0.85311471262509   -1.10253565306392
H         1.60048401417470    0.40432803114088   -2.26060439691023
H         0.77864697911062    0.87444935238556   -0.83536685081292
H         3.43514889726881   -3.19124753514099   -1.01011925376948
H         1.75272276971415   -2.62122629611176   -0.99877832696256
H         2.25796983224697   -2.88663386672402    1.46321303888242
H         5.05721234014089   -2.24511398826852    0.31935761616147
H         7.37575707291113   -1.96353823675166    1.13485508955783
H         8.43225709646089   -0.66996000217834    1.58627707604724
H         7.98550592075086    0.47316570582561   -0.73852875254828
H         6.55501726339201    4.18721443435100    1.21018758758497
H         3.51195887712378    3.00133915715726    0.00393561430162
