28
 energy: -47.953873935793 gnorm: 0.110384278384 xtb: 6.4.1 (79825abcba525fcdf90b791dcacef51065a7a4e7)
C         1.18712324276949    0.09207944708512   -0.76575256260956
C         2.56682424620827   -0.07867567480366   -0.16859609088802
C         3.49846566188143   -1.13162271762416   -0.33434131813765
C         3.16097434971564   -2.46245755564524   -0.98642556677725
O         4.12687926646636   -3.09659313092832   -1.82428771011125
C         4.85757218423773   -1.02667735320121    0.05833804216758
C         5.33520291575503    0.16157760450037    0.62797618324198
O         6.65661507940594    0.39415771534449    0.92495386836292
C         7.44669923654891   -0.77454841133546    1.11570697805040
C         7.98987452642292   -1.28157058730709   -0.20117993844590
O         8.58581439699712   -2.33819251930765   -0.39972966511542
C         4.47237896397845    1.25010867215355    0.77697585147061
C         5.04207972125479    2.51894321657049    1.15907417623477
C         5.39587485599446    3.65355167879401    1.27511017472975
C         3.11042854385793    1.05383412388902    0.48724263102818
O         2.27405163370463    2.11766892407244    0.74878083198932
H         1.33222242912576    0.09774066102646   -1.84577450080075
H         0.73626144744399    1.06659682077589   -0.53195523772884
H         0.46707935701143   -0.72179726464262   -0.62063770701051
H         2.23795206400690   -2.34783289188680   -1.54176284735451
H         2.92639355223647   -3.14406016582144   -0.15785278290204
H         4.77292831128508   -2.41914309599764   -2.08748449843038
H         5.44886300259410   -1.93264330881936    0.00415146570147
H         6.90678904141477   -1.60958782551040    1.56751328997048
H         8.30646756373481   -0.58675948947778    1.76816550365238
H         7.89116036044275   -0.50087528903457   -0.97432325077705
H         5.93333793013461    4.52986791373815    1.56598053818114
H         2.84286557524919    2.64956992833686    1.33028550956915
