28
 energy: -47.947418675908 gnorm: 0.115333625477 xtb: 6.4.1 (79825abcba525fcdf90b791dcacef51065a7a4e7)
C         1.02682978903040    0.11791321789951    0.06970027941998
C         2.53052168465542   -0.03511433046081    0.13913575721294
C         3.24741176773457   -1.25565878755439    0.11758270054235
C         2.44808670348245   -2.54378099981317    0.00778182668623
O         3.00811401108624   -3.51013800437700   -0.88083325659639
C         4.65621580011597   -1.22637246546573   -0.04610802950963
C         5.39571526576385   -0.03623052465834   -0.08176298736521
O         6.76682783243772    0.05538877304529   -0.09045698501770
C         7.68765589454046   -1.02972118565494   -0.12371025176107
C         8.58113888484693   -0.81132105447456    1.07641122591437
O         9.62544745944509   -1.40688911181120    1.33279866770754
C         4.68685206183944    1.15514551491878    0.09057985449626
C         5.35944228023884    2.42632589190641   -0.01997359228250
C         5.60306047585271    3.55216587818660   -0.33478502215604
C         3.28992703955621    1.15603164636005    0.25175586938536
O         2.66815629232581    2.38606609908239    0.24229855510405
H         0.55006855165988    0.16985120264065    1.04823713261711
H         0.51157773083532   -0.64310440710484   -0.53278553049146
H         0.78753260771420    1.12818500807657   -0.28244258714949
H         1.45226610507838   -2.34162886229801   -0.36769693149544
H         2.31821560416294   -2.98876406576018    1.00340559828704
H         2.86135109929180   -3.11907721045600   -1.75896910708403
H         5.28846430248157   -2.10479190582189   -0.09056532770551
H         8.27718494893859   -0.88207198860843   -1.03122223114651
H         7.27745890566766   -2.03984512130552   -0.01620935318931
H         8.09830661565318    0.02267635835276    1.61334840292235
H         5.95420313418861    4.55578036724133   -0.23057814898202
H         3.37572974297151    3.05122086993599    0.20325232230081
