28
 energy: -47.951828148348 gnorm: 0.115976344728 xtb: 6.4.1 (79825abcba525fcdf90b791dcacef51065a7a4e7)
C         1.42149163019445    0.33430596504518   -1.24804973415478
C         2.66605518043131    0.04891029640479   -0.43629921455440
C         3.30405076932546   -1.18201653774573   -0.15010795164286
C         2.77943558932019   -2.57954327582569   -0.43634833347000
O         3.85819907028442   -3.35707768260407   -0.95482959219572
C         4.55598182268736   -1.28756155515423    0.50861052930745
C         5.17494604667337   -0.11876422663560    0.97268451744750
O         6.44958996300520   -0.07130529060853    1.48400621968801
C         7.45805158693207   -0.98354517450931    1.06291564899430
C         8.05933214952350   -0.77543022045044   -0.30874461348480
O         8.75062465299922   -1.55802941028139   -0.95733493889037
C         4.52190115804195    1.09974854842493    0.77187380715557
C         5.24876431890917    2.31375494012564    1.05179814163656
C         5.50236794113979    3.37781093313727    1.53079895052777
C         3.32442145022576    1.20874669705283    0.04280608901703
O         2.74783601631306    2.41660958463300   -0.28626764879502
H         1.56838962484373    0.97650856949637   -2.11611078939692
H         0.68797322829630    0.88402194208140   -0.64192700729977
H         0.99394578818667   -0.60247423357628   -1.62429996817181
H         1.93252410036128   -2.55474732739042   -1.11135539943659
H         2.50247316461261   -3.03482197146921    0.52394133828937
H         4.05219869491687   -3.01994310131391   -1.84606182251047
H         5.02253258762380   -2.26216319618967    0.58488211129082
H         7.23780537001266   -2.03270057979514    1.27193076797591
H         8.25317614718878   -0.70293115668553    1.76234476592822
H         7.74526281969239    0.23337040815759   -0.62601730768058
H         5.95241683879831    4.29407732080445    1.84594046089003
H         3.34231095316761    3.04607580677608    0.15530623157375
