28
 energy: -47.951051968120 gnorm: 0.113749982628 xtb: 6.4.1 (79825abcba525fcdf90b791dcacef51065a7a4e7)
C         1.14377504303534    0.30364511606690   -0.72251636008237
C         2.55279746254320    0.12759832659867   -0.20003058187151
C         3.31565379092109   -1.06183658251774   -0.28616722201568
C         2.63616573039716   -2.34159860162545   -0.74523233555584
O         3.16313356504999   -3.62232722644172   -0.40004789394575
C         4.71504332894894   -1.03721337935981   -0.05490162188958
C         5.34266881057633    0.14953461342274    0.34794331688388
O         6.70518414955651    0.18968492621095    0.52218242305183
C         7.34682550883418   -0.87895325313964    1.20978880749665
C         8.30796493047957   -1.49053233708697    0.21556344539903
O         9.11671109777238   -2.37906798803708    0.47527533362085
C         4.60544104559753    1.33584258432973    0.32083995164323
C         5.39196361681005    2.53819247277092    0.44826127851925
C         6.16056503401071    3.44435412927875    0.32954044198424
C         3.20389415568620    1.31831579077837    0.20798110607692
O         2.45012751335528    2.46668415149350    0.32093687122673
H         0.43711644388564   -0.44539870354564   -0.36600522928260
H         1.14389028861209    0.19416669975514   -1.81596783522329
H         0.69620340532611    1.26032748251489   -0.42865362694764
H         2.62689527233532   -2.28410347394919   -1.82695171737085
H         1.56413395548160   -2.32793676714903   -0.50710557420308
H         4.12984501474278   -3.62498855145907   -0.50517808756540
H         5.22696445942678   -1.98397107653800    0.06725384041122
H         6.61117239013381   -1.53955721730672    1.67383587009292
H         7.96385484452861   -0.40101390303363    1.97856521236556
H         8.41814371381296   -0.84039927729843   -0.66883909714330
H         6.81504444875840    4.28646410167762    0.26701235634398
H         3.02229216144951    3.17611144093658    0.65851086294849
