28
 energy: -47.948055201944 gnorm: 0.114520953161 xtb: 6.4.1 (79825abcba525fcdf90b791dcacef51065a7a4e7)
C         1.09401841738776    0.09802611557940   -0.71341183023181
C         2.57165780871617    0.05221466414765   -0.39121442610468
C         3.48682216912522   -0.95552375064039   -0.77988160239024
C         2.86702350383510   -2.20899418045605   -1.37561402499569
O         3.86566841594223   -3.17328229596716   -1.70723125016062
C         4.87363296593468   -0.78707259335128   -0.53338380847751
C         5.37682991235850    0.13594707676294    0.39365237575038
O         6.70836017638875    0.33347020355901    0.67011414960902
C         7.81833252102921   -0.22147694152932   -0.02737332666612
C         8.09158794667210   -1.60440007147898    0.51957924645262
O         9.15501956847700   -2.19588217050676    0.34557251855151
C         4.45925808769311    1.08002308668929    0.86093000498680
C         4.85087044536089    2.14527846940619    1.75108163304734
C         5.33990045114703    3.00699472800277    2.41761479557888
C         3.12234885735574    1.07134777019005    0.42506713464008
O         2.42258667344041    2.16939574393321    0.87705892924341
H         0.78562627613899    1.09766023626387   -0.40819203855438
H         0.51641547044673   -0.58458477476842   -0.07463262776847
H         0.77737795699489   -0.08077052147906   -1.74766876324216
H         2.29966342041270   -1.93052989212598   -2.25542572342209
H         2.16075819411615   -2.66464410559374   -0.66870838496846
H         3.74841650927068   -3.87281834428423   -1.04203069683552
H         5.56868648167213   -1.52189019834345   -0.92104219929320
H         8.61969661572481    0.50639582673717    0.11733190703015
H         7.66928783389812   -0.21555059384945   -1.11269306670518
H         7.16923207166304   -2.01873531887542    0.96067578707370
H         5.76786202815915    3.72168358827790    3.08654751864220
H         3.02022014675552    2.90519604390512    1.09164646829405
