28
 energy: -47.955310195730 gnorm: 0.111991247647 xtb: 6.4.1 (79825abcba525fcdf90b791dcacef51065a7a4e7)
C         1.42771253851992   -0.01165665301747   -0.99567503752620
C         2.80764854253580   -0.10527563048397   -0.38220934901222
C         3.46342035243732   -1.28403528449373    0.04745762460611
C         2.90341082954626   -2.63043922612062   -0.38128633126957
O         3.04204453643262   -2.77987778826113   -1.79392996170602
C         4.68030318153384   -1.12907241348198    0.75989276643591
C         5.38555218741435    0.07504667915366    0.89138272130779
O         6.63949464614038    0.30698049697215    1.40349048292721
C         7.67624154803138   -0.66853808123184    1.39987271656993
C         7.87648597925319   -1.25871902798244    0.02223319617166
O         8.24340312471855   -2.41596796408701   -0.17054371669730
C         4.68549046787544    1.23867615872630    0.56359319743056
C         5.29030923181694    2.54583425598419    0.64125371155022
C         5.83672722666254    3.59745851056603    0.78783308262155
C         3.42133511261304    1.12588485158367   -0.04185486078604
O         2.67206706474388    2.25620704570839   -0.28811118900549
H         1.54838871928697   -0.13268623523154   -2.07192886917227
H         1.05261374070051    1.01105313168243   -0.85080525443389
H         0.80745287930433   -0.80668821954124   -0.56541977071889
H         1.85393262067719   -2.70350829027615   -0.12289738277877
H         3.36144029343333   -3.53739705603198    0.03558250426231
H         2.66738427101298   -1.96125162673887   -2.16145052157954
H         5.17973149090970   -2.06484231478105    0.97953198483385
H         7.47323104422380   -1.52192858067331    2.05059091422477
H         8.56340654109649   -0.08122753193169    1.66097226892202
H         7.94299136452648   -0.52455563072875   -0.79847464198021
H         6.20442754953665    4.59960685474044    0.83139262423102
H         3.15541844201624    3.08276302664898   -0.12140090825675
