28
 energy: -47.955978972945 gnorm: 0.101741681638 xtb: 6.4.1 (79825abcba525fcdf90b791dcacef51065a7a4e7)
C         1.08637102857866    0.22300521155836   -0.05717441721438
C         2.59106526100439    0.06619243458028   -0.03201370067671
C         3.29522970848029   -1.16062269831263    0.02457035063105
C         2.55457149017282   -2.48670790425102    0.08077576962541
O         3.36187545775553   -3.59851293958030    0.46712157087887
C         4.70861979150308   -1.09352488977708    0.12560254087522
C         5.40541945307967    0.11978840502780    0.04247826824738
O         6.77177702168186    0.25846783636038   -0.00500181417369
C         7.66262592235126   -0.81775627146289   -0.27817506690713
C         8.28560757218749   -1.56632672489452    0.87847447586278
O         9.20433662500637   -2.32895910335277    0.58633579001344
C         4.68303296774693    1.31510882473128    0.01193634469840
C         5.26308843317039    2.63549340794316   -0.01295148614153
C         5.58353250658234    3.77101376927569   -0.19701892828583
C         3.27817611809936    1.30547154536273   -0.04858104149618
O         2.51793381184813    2.44461867741671   -0.20365681362138
H         0.77152657921443    0.70142450925738    0.86992922150303
H         0.56254875725446   -0.73929473391437   -0.14209029930586
H         0.78678751239779    0.95139360469188   -0.81981253287994
H         2.20575050233730   -2.70981612764086   -0.92025124763872
H         1.68400476568437   -2.46840825403710    0.75004538908235
H         4.03949720738606   -3.22764217904024    1.05777723327629
H         5.28812887870841   -1.99822651884110   -0.01230870648234
H         8.49480752242897   -0.42494780263170   -0.86647607355495
H         7.27396036023735   -1.56284432395095   -0.98099172394422
H         7.98883839151059   -1.33858693245520    1.91628122755234
H         5.92657507701541    4.77344162984369   -0.33435955727347
H         2.92725510850808    3.31956294511281   -0.09621258857529
