28
 energy: -47.959925694954 gnorm: 0.107787527809 xtb: 6.4.1 (79825abcba525fcdf90b791dcacef51065a7a4e7)
C         1.13606047307386    0.11644180576282   -0.73766644644959
C         2.58249006314615    0.02472706384169   -0.30320369343251
C         3.40529392139421   -1.11011180215013   -0.50134319941097
C         2.87577502543122   -2.34058078842292   -1.21952941378597
O         3.64620706010702   -3.53664339040294   -1.10559109186515
C         4.77179641614551   -1.05467881214132   -0.12454183411089
C         5.39802932346938    0.10440802145234    0.35391258471875
O         6.68594487140439    0.28732322721622    0.79689669675625
C         7.56286667090345   -0.82623084490706    0.92918129236352
C         8.45873032761749   -0.95172649494080   -0.28242144041902
O         9.47852087577454   -1.63637047661619   -0.23439971012252
C         4.55807486314180    1.16270997106114    0.70893294546826
C         5.00687477206305    2.36218623337072    1.37251002970275
C         5.15091223001549    3.36745180513410    2.00073456550541
C         3.21334450000915    1.14207798630355    0.29825961944841
O         2.41151105074763    2.21384218685940    0.62698089660214
H         0.48453827161144   -0.60512159086791   -0.24532683773346
H         1.16044762166838   -0.05594711237772   -1.82270515304990
H         0.73489882747994    1.12477343353008   -0.58193112019299
H         2.76205829474249   -2.07051432422882   -2.26242972592498
H         1.85902074093263   -2.54991800370833   -0.86101611850778
H         3.25456879243268   -4.19783143443929   -1.70144367879036
H         5.28079758711791   -1.96879633921158   -0.40497416330438
H         7.00038668866318   -1.71500515260733    1.22349283319713
H         8.25043403490395   -0.62333124292937    1.75758412541585
H         8.12289542133371   -0.39687841094414   -1.17479957520259
H         5.42427500439058    4.25864327478857    2.52270470979079
H         2.98238880582590    2.81014351710024    1.13995163518122
