28
 energy: -47.955118996258 gnorm: 0.111105490468 xtb: 6.4.1 (79825abcba525fcdf90b791dcacef51065a7a4e7)
C         0.94278895254138   -0.00236203756635   -0.23255529327883
C         2.45415565536894   -0.01261087770496   -0.16188918498447
C         3.22175032742096   -1.16663629676997   -0.45024394552468
C         2.55789497912670   -2.52915991630427   -0.33595872800594
O         3.34351311332972   -3.43285599649214    0.44073346516769
C         4.63945590715847   -1.11884219138783   -0.43582921568964
C         5.34518399459842    0.08525940131083   -0.30677180386729
O         6.71038188528966    0.21974916194593   -0.38780630398261
C         7.44970972223694   -0.96338399176213   -0.10481508938473
C         8.59057818261233   -0.63786349790807    0.83260562684965
O         9.34301108707151   -1.46551905821232    1.34235775187835
C         4.55817130307083    1.19491028242836    0.01080011966609
C         5.39205418357715    2.35464713259962    0.21117226892604
C         6.18382390139740    3.20791089538659    0.47765565524424
C         3.15245649408113    1.20275431677456    0.04661000048481
O         2.47424665707389    2.37539826408554    0.30079622985142
H         0.54641854190533   -0.56516470888057    0.61223868274983
H         0.62520081689921   -0.54753639875656   -1.13230212339787
H         0.70367631072144    1.06726312370478   -0.20717825517579
H         2.49796382848993   -3.00500443943858   -1.30729219308585
H         1.56830312621691   -2.35296497505645    0.10654148688548
H         3.14469693312470   -3.25108403141445    1.37508968638090
H         5.15049028481160   -2.05951343384125   -0.60110721891107
H         7.85195443096751   -1.39259809474080   -1.02508528595527
H         6.76296808636412   -1.68750537312782    0.34707265651532
H         8.76323741769677    0.44386897138139    0.96308118186891
H         6.90808133348205    3.93983885528883    0.76249755589832
H         3.09347906930665    3.09336685256003    0.08704873667471
