28
 energy: -47.953308291183 gnorm: 0.113336709584 xtb: 6.4.1 (79825abcba525fcdf90b791dcacef51065a7a4e7)
C         1.28678446265318    0.13776887115419   -0.96240553379890
C         2.66067593687667    0.07222814384330   -0.33196547097375
C         3.51034761601485   -1.05918416475514   -0.37767035042643
C         3.14296405283023   -2.41077918942167   -0.96797183571392
O         4.21896050659733   -3.23898848733041   -1.40776065326183
C         4.85462304886056   -0.99554714802478    0.07094424787897
C         5.33319675555504    0.14450247460086    0.73111290436643
O         6.63782699439230    0.25102497559583    1.14945756537655
C         7.57627171247575   -0.80716672893347    0.98807121466605
C         7.91767464774192   -1.18760582318783   -0.43495800519261
O         8.50787992154063   -2.24374188483493   -0.65232999931711
C         4.51136320171898    1.26957864705707    0.83289298338371
C         5.01443150939939    2.44470015963907    1.50110770819069
C         5.20940737850862    3.51698493068941    1.98912564577292
C         3.20857049841098    1.21244060304534    0.30673291250093
O         2.32757400220490    2.26233513746087    0.45247136510206
H         0.85253613840273   -0.85330256981953   -0.83302623576668
H         1.22442405650881    0.31806585270342   -2.04463741230327
H         0.68851234682135    0.80609361836019   -0.33206487980617
H         2.54729615655846   -2.20841559333749   -1.84986592583246
H         2.53933487288909   -2.97394840804418   -0.24366846505272
H         3.88845145051855   -3.93072176130264   -2.00597408464623
H         5.56885379324778   -1.75323416219025   -0.22758577423385
H         7.31614638633436   -1.78205839842976    1.40621452734662
H         8.50001550633791   -0.47795602672109    1.47642160031976
H         7.68629484617630   -0.43843184307368   -1.21096183913232
H         5.41295554168576    4.42305770812394    2.51733255698701
H         2.89310851698654    3.04645536872285    0.55218015066538
