28
 energy: -47.957427210468 gnorm: 0.119786801298 xtb: 6.4.1 (79825abcba525fcdf90b791dcacef51065a7a4e7)
C         1.10859659651989   -0.15844058441673   -0.12729279743954
C         2.59720521366716    0.10584188776998   -0.06790256341402
C         3.40568482312547   -1.04203912541641    0.11335587283247
C         2.78356521526579   -2.41072115049717    0.33676659335258
O         3.67335901410925   -3.52381308824730    0.41680751534924
C         4.82130577869271   -0.95826562949236    0.07620106021171
C         5.47941009263266    0.27445669247030   -0.03271622992746
O         6.85112532477651    0.34659815510921    0.00743710110368
C         7.64147216067923   -0.76474006743425   -0.40094135686042
C         7.93270881393971   -1.59630725974959    0.82787077289924
O         8.48490113471648   -2.69417866149741    0.79997351635989
C         4.70576239092566    1.42910096876270   -0.17354160662132
C         5.23831515806742    2.76950842655105   -0.18749135674729
C         5.62874636650390    3.89801856336757   -0.18724409189255
C         3.30508513905792    1.33320478563342   -0.09426258846372
O         2.52529443083912    2.45714632007531    0.07412664719698
H         0.58667529719196    0.79800857203515   -0.14563340835334
H         0.70751019276178   -0.89181984320832    0.58608383568328
H         0.95047165636285   -0.70030710395352   -1.06713002335596
H         2.04557803632601   -2.61263871104439   -0.43011845382637
H         2.28555082935757   -2.32655251695493    1.31197961875270
H         4.28508865365478   -3.47454914090598   -0.33748048003943
H         5.36379694071281   -1.82399516402779    0.43613307122505
H         8.55523317618447   -0.37470748827154   -0.85463528412691
H         7.09415514088467   -1.36425524339316   -1.13660025584619
H         7.63939928943929   -1.07375105216292    1.75409145370887
H         5.87588342066501    4.93137296350188   -0.29906640360797
H         3.09303741416246    3.24169629481918    0.15637569627022
