28
 energy: -47.953691732732 gnorm: 0.124510956712 xtb: 6.4.1 (79825abcba525fcdf90b791dcacef51065a7a4e7)
C         1.43202407541805   -0.01246264375223   -0.86775360996812
C         2.82375950741851   -0.03082507797565   -0.27440433902393
C         3.54846146861865   -1.21740785302598   -0.00803412825276
C         2.93192607554841   -2.58195333101961   -0.26906166692066
O         2.56844721681391   -2.92977184808800   -1.60473326099625
C         4.82052266415814   -1.13594869421220    0.61454589006444
C         5.38425215500142    0.12838888684659    0.83415492141213
O         6.66836049113941    0.24501507783078    1.30942691587923
C         7.57841822560974   -0.84189172174256    1.43951247829994
C         7.97152497295843   -1.43217117586340    0.10409521014364
O         8.94859453991457   -2.09613934477153   -0.23575411037498
C         4.65907600616194    1.26709769271063    0.47495055954649
C         5.20448523686555    2.58288466716682    0.70239866243732
C         5.66329640832424    3.67426614147923    0.54635210390057
C         3.40784209969811    1.25581678290726   -0.16666028396447
O         2.72591713478855    2.42340213944109   -0.43386026820496
H         0.84212188291832    0.87437351805754   -0.63738383627287
H         0.90016775993648   -0.90277040606913   -0.50429437506909
H         1.49158053092458   -0.10800246683637   -1.95827733843293
H         2.08732491371267   -2.77596386063264    0.38095159543858
H         3.76550724268735   -3.25912537374030   -0.03944548013824
H         1.74065863073296   -2.49651691950306   -1.87426376103674
H         5.41314057899589   -2.01596381590023    0.83297832243161
H         7.15296525847069   -1.68667885219857    1.98563266626775
H         8.51579082341026   -0.50900295495572    1.89851799257651
H         7.25935999043095   -1.11956590993819   -0.67825969716243
H         6.15696489719567    4.61218598749716    0.68051643710943
H         3.31486603701900    3.16343285261427   -0.21000898079884
