28
 energy: -47.953679851797 gnorm: 0.117557632678 xtb: 6.4.1 (79825abcba525fcdf90b791dcacef51065a7a4e7)
C         1.47131068270931    0.01487402968568   -1.07379417662312
C         2.84729580492111   -0.08287338909208   -0.45215246311611
C         3.48487601519625   -1.26392396201952   -0.00189062944647
C         2.79056519663400   -2.61601728403548    0.00153984516376
O         2.06668926027669   -2.96447129838699   -1.17816208305755
C         4.72638312928874   -1.28247815019247    0.68418297324785
C         5.36355125746409   -0.05437809964307    0.90858356938837
O         6.43831992826460    0.01843530740723    1.76180679809083
C         7.46297314056054   -0.90667357348230    1.41431134288261
C         7.96612831779979   -0.70353548740544    0.00297445161522
O         8.65498866080469   -1.55425220846518   -0.55628284121205
C         4.79111320588398    1.14398277876447    0.47521093037979
C         5.48092280012834    2.39965388322056    0.64239944766497
C         5.98110196912696    3.46526959688984    0.44176128670114
C         3.54235100463961    1.11961069691535   -0.17083625412821
O         3.06659911801356    2.29285435095198   -0.71565964125791
H         1.25706109258258   -0.91722525951169   -1.59611709923417
H         1.52721600729950    0.76808246071090   -1.87202554695718
H         0.70407465510447    0.41376186874305   -0.39988454187371
H         1.94346200107571   -2.52299693338618    0.67032370064914
H         3.46009807635290   -3.40109515293913    0.37773339711379
H         2.62200657837098   -2.87266038582719   -1.97112103526133
H         5.06320627773500   -2.15421829726784    1.23186410141281
H         7.23247078536128   -1.96965680495507    1.51359930734396
H         8.32281288947284   -0.59814688189904    2.01900570535825
H         7.72862637543034    0.24877479829380   -0.50069028210734
H         6.49027942241031    4.40448942648352    0.44435047149899
H         3.57767497857316    3.04505607378858   -0.37271693959299
