28
 energy: -47.953538502603 gnorm: 0.106574148875 xtb: 6.4.1 (79825abcba525fcdf90b791dcacef51065a7a4e7)
C         1.22252854875541   -0.19505110974982    0.26290926036557
C         2.69852177904505   -0.10875990100135   -0.05853411102413
C         3.50425375459780   -1.23478532319055   -0.35347040093811
C         2.92794568110396   -2.63914312667511   -0.43017618265027
O         2.81440428508257   -3.10601173324904    0.91379378350627
C         4.89399710533661   -0.99715733726377   -0.51008297369680
C         5.50554599611562    0.23280206751298   -0.23119880270114
O         6.86002767554107    0.45097281329900   -0.30994047859478
C         7.85888513819167   -0.56125010171974   -0.24527008704744
C         7.72024454824647   -1.57649429329251    0.86664719564169
O         8.59463801549199   -2.41421690085668    1.07800737562528
C         4.72259999366039    1.35780941069076    0.03883820227874
C         5.26699117972975    2.69335191616946    0.06037065681013
C         5.72446807412888    3.74517868747571   -0.27181461511960
C         3.33274276003069    1.14994829857936    0.08852341597252
O         2.58459203376927    2.29059202978332    0.28569190800289
H         1.25953472782865    0.22115307181032    1.26935738953121
H         0.75913177603478   -1.18379114377874    0.13930410139594
H         0.67952655351942    0.55639353865471   -0.32223738987768
H         3.53943218651465   -3.37233866946802   -0.94205213792740
H         1.94855228086014   -2.67836879610337   -0.92554779778369
H         2.44320644140087   -2.35334925912534    1.40501860934367
H         5.63731764299596   -1.74353672631196   -0.76252646585772
H         8.76242155009524    0.03469427774952   -0.09899967426239
H         7.91941495530342   -1.06867410793792   -1.21430331578674
H         6.88826636314927   -1.41320457798244    1.57242972767993
H         6.04715358997187    4.73307302597185   -0.51948597788349
H         3.12783018538195    3.09643583304348    0.29681555574523
