28
 energy: -47.953795602124 gnorm: 0.115358770667 xtb: 6.4.1 (79825abcba525fcdf90b791dcacef51065a7a4e7)
C         1.43995202013199    0.09288138422448   -1.04218279912511
C         2.78022969455555    0.03041874312683   -0.34283867722917
C         3.43269276904146   -1.18338262560237   -0.01864297651042
C         2.77534662570315   -2.54829883870644   -0.14166896738550
O         3.08838485647422   -3.17334427732707   -1.38603164642630
C         4.72959779799959   -1.17173978500349    0.55605949735138
C         5.30743584330898    0.08140932145644    0.80159782289580
O         6.59894368262908    0.23375713170912    1.24568902394951
C         7.47980621591545   -0.88322853186579    1.29970708205035
C         8.21944035442614   -1.19524371070017    0.01834456577717
O         8.67778436197851   -2.31946205751713   -0.17419142772032
C         4.63457676830609    1.28669317498280    0.58684810877455
C         5.32420088068421    2.55185385950376    0.65231724652602
C         5.73955433387735    3.66297238367482    0.51495333463388
C         3.31760136795491    1.26666495861037    0.09435176560480
O         2.70443295770156    2.43712533346586   -0.29771972194691
H         0.65737672705802   -0.27326805419306   -0.37807158359303
H         1.49088099444958   -0.57129244240634   -1.91619711923299
H         1.05964885258593    1.09243900670697   -1.28336920543948
H         1.72993999977505   -2.51103246629668    0.13983529270079
H         3.14763223757006   -3.27591555653054    0.59189797502081
H         2.60857283927006   -2.69326239406858   -2.08237371858951
H         5.25275115611182   -2.11561979317272    0.64952830713167
H         7.02192708308265   -1.81597078963261    1.63625033773775
H         8.18957438955524   -0.53648467233979    2.05876321893230
H         8.08819474812935   -0.44441689006228   -0.77916022523337
H         6.21156464195082    4.60131004502150    0.31968181458328
H         3.28562317117845    3.17104662161662   -0.03658155545577
