28
 energy: -47.956682265665 gnorm: 0.119687705915 xtb: 6.4.1 (79825abcba525fcdf90b791dcacef51065a7a4e7)
C         1.42046354427944    0.21957450464743   -0.98940275471471
C         2.75446776036720    0.06975609499598   -0.29132308181119
C         3.41668323762921   -1.14165332904214    0.02185827675129
C         2.75265197587318   -2.47713799274686   -0.27102193766840
O         3.56553433703526   -3.32338355222733   -1.08355128102029
C         4.67341074428061   -1.09702009286902    0.67838321741941
C         5.36980451592121    0.11615172490535    0.76680506522521
O         6.60959663365737    0.22948754765450    1.34860387484914
C         7.31008192412480   -1.00795631269098    1.41603373291582
C         7.72303924415522   -1.46709040646332    0.03582933846807
O         8.30610963315129   -2.53794851955009   -0.12008106663665
C         4.79463227526452    1.33830122754966    0.41030340366295
C         5.43763959329757    2.62939650927913    0.39963809898014
C         5.66010474915947    3.78272740517947    0.18444326295048
C         3.45930540698621    1.26998967383105   -0.02514313504775
O         2.78844752980678    2.45791982136624   -0.22121640910482
H         0.68373589074654   -0.41203423480773   -0.49358426681988
H         1.50726811578883   -0.10942501319574   -2.03431707985348
H         1.18334324182780    1.28824339194207   -1.04971528475159
H         1.76460661418260   -2.33062061741314   -0.69031595192704
H         2.57451157675208   -3.06757378533199    0.63771053005765
H         3.92201477260471   -2.85042800817912   -1.85480041079257
H         5.14404529591552   -2.04558154800799    0.90657088830274
H         6.82205542610247   -1.76352388718193    2.03560662030192
H         8.23448123226145   -0.60875186274233    1.84764711557253
H         7.71963743248713   -0.67169988023919   -0.72858060088765
H         6.18706107627079    4.71133021014835    0.14681174510562
H         3.42593140676527    3.16277780251641   -0.01773373627911
