28
 energy: -47.952569894822 gnorm: 0.111904422621 xtb: 6.4.1 (79825abcba525fcdf90b791dcacef51065a7a4e7)
C         1.44012314824085    0.05702821482532   -1.00654538777910
C         2.81417449013341   -0.06167311768095   -0.38427459922093
C         3.50566730564663   -1.25256438677509   -0.05603633050588
C         2.88607946091012   -2.63725782108162   -0.15074969242180
O         2.85259703623086   -3.09616403645934   -1.50182231337118
C         4.82619881752732   -1.18009851037877    0.45711703015631
C         5.47468249837593    0.03684297754088    0.70829604280528
O         6.64419291081096    0.34807929399042    1.35929274637327
C         7.65653166672276   -0.65192720408599    1.39992497992643
C         7.82500446488231   -1.13126556819564   -0.02420762718399
O         7.85488276615427   -2.28198923560246   -0.45543675295182
C         4.73024977746333    1.20409791868011    0.52147585165651
C         5.23007899461729    2.51977463934726    0.83717303917836
C         5.75616935219895    3.57185076114539    1.04293136096708
C         3.45760925415811    1.16253297661565   -0.07521205009309
O         2.80877911252022    2.32888949495507   -0.41916694591719
H         1.50834621527431    0.98178213932558   -1.57900412325790
H         0.69409241341575    0.16351143481108   -0.20671970014237
H         1.22598207807843   -0.75500500483520   -1.71128823360440
H         1.87953322650437   -2.51663703263870    0.23111907630093
H         3.44779498976988   -3.28310846546912    0.53736057287963
H         3.77398324661712   -3.02067523070771   -1.80338385007894
H         5.29880581255305   -2.14753919473088    0.57559267822114
H         7.52067421369973   -1.43272864204829    2.15146649612330
H         8.55630314598570   -0.14030618679121    1.75884503143945
H         7.83688596832636   -0.30530841013172   -0.75539421044759
H         5.93370535952650    4.62366884827176    1.10261342436777
H         3.43628438179545    3.03886635014069   -0.63546688646949
