28
 energy: -47.953797129867 gnorm: 0.116924939742 xtb: 6.4.1 (79825abcba525fcdf90b791dcacef51065a7a4e7)
C         1.45522635946050    0.22731919796247   -1.11067146301136
C         2.75869528554051   -0.02328574158219   -0.38438366215944
C         3.41232672298329   -1.24893402522495   -0.11111284545115
C         2.78942088332841   -2.57144178382248   -0.52728249803218
O         3.75352926144569   -3.43641464082568   -1.12680748480674
C         4.71197318062067   -1.25312704153542    0.45746667269805
C         5.28576199995032   -0.03711420130123    0.85325417085966
O         6.44816658475858   -0.08300892693640    1.58477902951893
C         7.50211489856799   -0.95040232796640    1.18065606360901
C         7.85973716990884   -0.71381573174302   -0.26932156621228
O         8.24985272173717   -1.59636209250259   -1.03085817602395
C         4.66867124231408    1.20624947089197    0.69573676779305
C         5.14957463937993    2.44988517376460    1.24582888744681
C         5.58656110295405    3.50568550876034    1.59267206752009
C         3.47382494918372    1.15175699935745   -0.04368929862825
O         2.82987213994056    2.32054255143365   -0.38856344080307
H         1.62789438385894    0.70136211461610   -2.07659189245160
H         0.79318107843164    0.90522760245431   -0.55411247631015
H         1.08825452787220   -0.78967253376952   -1.29226531631664
H         1.98950268038705   -2.39850267388667   -1.23702286242947
H         2.34040688084509   -3.16487918395012    0.28040655344947
H         4.17549978511867   -2.89478959980775   -1.81541017218947
H         5.09237362609457   -2.20462486393780    0.80858308063877
H         7.20246117720727   -1.99280350072640    1.30922599567576
H         8.31162425497422   -0.68428921381887    1.86916662728000
H         7.56006158042247    0.30455213161212   -0.56949093969308
H         5.83646743304329    4.43363822511824    2.05941915842953
H         3.45954350676457    3.05093577435665   -0.26750405654270
