28
 energy: -47.958809305495 gnorm: 0.107723167942 xtb: 6.4.1 (79825abcba525fcdf90b791dcacef51065a7a4e7)
C         0.93778923444184    0.07867950632936    0.14708492501625
C         2.43839665536158    0.05294094686626   -0.04486020669251
C         3.13944878297307   -1.17409004718286   -0.12879803468869
C         2.44052068738870   -2.51897492121876   -0.24290247978612
O         3.30144948611563   -3.64472763465404   -0.41200494897219
C         4.55702381692935   -1.17050150728039   -0.07541912483971
C         5.28646034898544    0.01971200820131    0.05060752601398
O         6.64495664718126    0.17004088217524    0.19311508242846
C         7.40522353317210   -1.00486906881572    0.45402618418590
C         8.86672505730801   -0.67487057747625    0.65753619456739
O         9.71207202564279   -1.53739676398592    0.88656307427038
C         4.61114911000410    1.23189542059912   -0.11104667051464
C         5.39744462970121    2.44090913566397   -0.08814710368472
C         6.03544356535504    3.42013484372184    0.15689593368535
C         3.20527880383584    1.24399480771670   -0.08347351136214
O         2.46751346720275    2.40591569734370   -0.01056807439616
H         0.54288600228365   -0.82720418752141    0.60638806862575
H         0.52053102721234    0.14847179182096   -0.86713708800848
H         0.72960911853426    0.98875333648176    0.72184008679951
H         1.72445054645727   -2.49844355658731   -1.05550968279520
H         1.94732515351758   -2.75213794928095    0.71026922365901
H         3.72919935484909   -3.61783489136095   -1.28487223429761
H         5.00626480366508   -2.14505924818537    0.07207691986509
H         7.31555943412353   -1.62462342745761   -0.44084121990050
H         7.01850854550411   -1.59104568731639    1.29486913791346
H         8.97404253970624    0.37189239147990    0.32625012194576
H         6.60947527355398    4.31642921813938    0.24934192792023
H         2.98110743688141    3.13358564963255    0.37844778159359
