28
 energy: -47.958823775560 gnorm: 0.113872003496 xtb: 6.4.1 (79825abcba525fcdf90b791dcacef51065a7a4e7)
C         1.28279637462582   -0.14775333444200   -0.52424788415493
C         2.76046463704579   -0.05280815469032   -0.21310488847706
C         3.53504623914491   -1.23456921575593   -0.12599091228812
C         2.95422136656883   -2.55949435299409   -0.59230784438648
O         2.85408205456397   -2.45205864108405   -2.01200601925701
C         4.91516512169640   -1.13920506849547    0.18794969892475
C         5.49004590915178    0.10429023038532    0.48426051480519
O         6.79091897047265    0.35730611769745    0.84775962185473
C         7.55632640447745   -0.69761559282352    1.42028505952724
C         8.09133282028628   -1.60715692937062    0.33732396819715
O         8.53349424680674   -2.73767250443286    0.53082858825087
C         4.75389339474873    1.26939298896210    0.25582889403887
C         5.22817788783307    2.58144485530520    0.62198914774453
C         5.47373328393829    3.70473800707806    0.94430385176252
C         3.37782062544305    1.20916030586921   -0.02732083574487
O         2.59080569396282    2.32935879791409   -0.18680716463258
H         0.90150593461816   -1.16392212965344   -0.42651464017541
H         1.03518963243552    0.42530337820179   -1.42863639062408
H         0.80285645645259    0.42430145784134    0.27845244858092
H         1.95334098811842   -2.83864419082092   -0.28600361196299
H         3.61886822555552   -3.40469859787716   -0.36866199762184
H         2.66418571255623   -1.53180605205093   -2.26233584284869
H         5.47339194327897   -2.04910355715852    0.37180532080723
H         7.07352584323636   -1.28762276549577    2.20240905087860
H         8.49786397008632   -0.25709786029867    1.76614561558359
H         8.27032436099871   -1.07510498670685   -0.61234069640556
H         5.77155522712509    4.68594504867454    1.24419900697729
H         3.16560490359840    3.10783410496846   -0.09626585245001
