28
 energy: -47.950367892260 gnorm: 0.119697100484 xtb: 6.4.1 (79825abcba525fcdf90b791dcacef51065a7a4e7)
C         1.41440525655219    0.05629380598595   -0.98306856867253
C         2.80836077877606   -0.09486663550120   -0.41441528241786
C         3.47098517846557   -1.28304610793156   -0.02290136972752
C         2.84071741641917   -2.65855086394224   -0.16776283149304
O         2.54528438014475   -2.84880086332431   -1.55110569403946
C         4.72578912067528   -1.20482046466016    0.63415948812445
C         5.34464929728519    0.03582452584044    0.84002514741469
O         6.55696646715640    0.18519232289705    1.46962478678850
C         7.58328081664083   -0.79707895413075    1.37843419901835
C         8.00496959841418   -1.22405793994058   -0.00943090490715
O         9.01460805586548   -1.90202537454119   -0.18833471288810
C         4.76188189951953    1.24254395631445    0.44534002266705
C         5.48039879836112    2.49211541359825    0.49829142463834
C         5.65445596410772    3.65698636645212    0.69514543295857
C         3.48817754991438    1.11724324528688   -0.13720179690444
O         2.79267039111345    2.27672250198929   -0.40469143173271
H         1.02825097344380    1.06300372607915   -0.82510270427875
H         0.73819726640937   -0.57223636782935   -0.38698615873942
H         1.31977242819791   -0.13671714836235   -2.05810727707880
H         1.93248916101268   -2.74608024111422    0.41616224467392
H         3.56627334466640   -3.41305631450974    0.16455215119246
H         1.91592238610439   -2.17948022400611   -1.86970235168760
H         5.13912797999772   -2.06159070508368    1.15226283416933
H         7.33116081321027   -1.75812838188498    1.83202243196277
H         8.50938079780400   -0.33967752677016    1.74352479283513
H         7.37381377855245   -1.01358507142784   -0.88938756169818
H         5.95922296529333    4.67165398774486    0.55741753763884
H         3.37613914091865    2.94044937312822   -0.00015895237926
