28
 energy: -47.947017703505 gnorm: 0.119606583328 xtb: 6.4.1 (79825abcba525fcdf90b791dcacef51065a7a4e7)
C         1.47659275428334   -0.09849824561345    0.85106287819698
C         2.90176011457910   -0.05793586491086    0.34452488644895
C         3.50297828188087   -1.29037042341619   -0.00727971037607
C         2.71979666574075   -2.59135343061712    0.05833581063646
O         2.90369478300167   -3.32434011083217   -1.15245947544815
C         4.85984206986868   -1.24043197125331   -0.41814218074093
C         5.47937066695798    0.01684642424983   -0.41615938878490
O         6.79461243023564    0.16882465069489   -0.78420977897332
C         7.62888814857599   -0.83225293459351   -0.21121638173013
C         7.52081065143117   -0.84914567609786    1.29687377640661
O         8.20984783866739   -1.42902708379174    2.13352277006963
C         4.82307287135417    1.23481363832945   -0.22278145190901
C         5.47968501593195    2.48469313726402   -0.51801174027020
C         6.02978553251061    3.54455064418856   -0.52596182763199
C         3.48085702078937    1.22695144402133    0.19647120765578
O         2.74848255809246    2.35212772655558    0.50836705424422
H         1.42399706398154   -0.82129936698719    1.66489667205636
H         0.80054017827897   -0.42993124062765    0.05060878842627
H         1.19944423804228    0.89920201586016    1.21120135191193
H         1.69561558454971   -2.36731743471827    0.33104340998011
H         3.06848697064710   -3.31352072409746    0.80869079069264
H         2.31189289519909   -3.11182945655157   -1.89421429651424
H         5.41269971085676   -2.14186523635442   -0.65287996935265
H         8.58714532837242   -0.70026551190599   -0.71840991971131
H         7.21770773653711   -1.82215809652313   -0.43746143476863
H         6.76984372609479   -0.13370137862022    1.67259754662527
H         6.50991933221333    4.45208053342218   -0.82136545643101
H         3.22700974905572    3.09078013975983    0.09603223402531
