28
 energy: -47.950203376747 gnorm: 0.120784240810 xtb: 6.4.1 (79825abcba525fcdf90b791dcacef51065a7a4e7)
C         1.15195565153803   -0.05809933937739   -0.32411346641293
C         2.64496911209461   -0.00168032125410   -0.08525004647765
C         3.44570570653190   -0.88425290142411   -0.84945631847651
C         3.04793081315098   -2.00380921877709   -1.79740378179872
O         4.07011271004785   -2.98492430787240   -1.96965522445141
C         4.84100528475231   -0.79743764099073   -0.60865901246897
C         5.38002590308256    0.20624392379502    0.20782654192986
O         6.72600950555549    0.47143772694494    0.28794982958861
C         7.69059495069668   -0.50644599762182   -0.08596468678485
C         8.03065578945920   -1.56743842640085    0.93626606979641
O         8.72389919358240   -2.53384319566437    0.62563504450641
C         4.53983933586161    1.04253969256477    0.94692185251067
C         5.03997474251322    2.25731591085647    1.54247414024155
C         5.20684947713019    3.35499347836183    1.98205178812843
C         3.15357113722570    1.05424842007173    0.71133452478701
O         2.30193819170843    2.01263348471362    1.21719264184777
H         0.70640540661198    0.87074923280170    0.03121527859357
H         0.67301911351713   -0.84443732257878    0.27581488714487
H         0.94852887068031   -0.13571340829039   -1.39859493695654
H         2.85804119966091   -1.68523646236199   -2.81522585750473
H         2.09144890280361   -2.47544553946373   -1.53502113061816
H         4.00798139194622   -3.50487440854469   -1.15027615432761
H         5.58790629223360   -1.46102093731478   -1.02714607898015
H         8.63964267754051   -0.02502876795901   -0.33186842243691
H         7.49239560339588   -1.01434480247783   -1.03618792463098
H         7.45783063253524   -1.48316425941075    1.87528120245616
H         5.46788819700269    4.31647931379235    2.36780565829631
H         2.82782954492253    2.60481397972633    1.78055416782101
