37
 energy: -49.572237294791 gnorm: 0.144940620721 xtb: 6.4.1 (79825abcba525fcdf90b791dcacef51065a7a4e7)
C         1.78619528196900    0.62867043190926   -2.35256537070988
C         2.07293215321543    0.44533371275190   -0.85560709490706
C         2.68916169603924    1.76762295388589   -0.31659465787061
C         4.19775526436738    2.01276596355450   -0.53091260970614
C         5.01864616986748    1.00876631348620    0.29644789913364
C         4.51454743559155    0.84255220836140    1.72290527186102
O         3.43088317996251    1.76464797602007    2.07243993580139
C         2.40053888691153    1.88598344121717    1.15589338251078
O         1.25757712151673    2.05836869079165    1.58068497037903
C         3.87007451889930   -0.58027983175047    1.95975873867793
C         3.60678064119229   -0.86032683819271    3.56875056718023
C         4.24691335419146   -2.22413980150667    3.27510278834855
C         4.96076494176847   -1.79656251530619    2.02919710247761
C         2.75794517690594   -1.00440995900789    0.93406212405065
N         2.98323331690453   -0.61917287726452   -0.45177556003257
C         2.94830792100836   -1.86130335417865   -1.21952717751844
H         1.22113089768916    1.56605934672832   -2.35633046446151
H         1.04330180786216   -0.13432804794007   -2.62274322741958
H         2.61281687541631    0.55322215595920   -3.06328951848773
H         1.08449852292466    0.42463985579621   -0.38759478398997
H         2.10503719469238    2.59586543999024   -0.74054772722309
H         4.38792088157166    3.02195982514381   -0.13584399463015
H         4.59574559107352    2.01061211417429   -1.54717169184636
H         6.06749144464766    1.34225960139104    0.32947924569573
H         5.00840701891839    0.02238960354111   -0.17531071634800
H         5.36426921247314    0.93491392753221    2.40897954434348
H         2.59635404191188   -0.71145042553218    3.95886942752096
H         4.32199510030829   -0.27738406414041    4.16567733190460
H         3.43762178383202   -2.93742391388949    3.10696476816857
H         4.93120750944720   -2.50802352842081    4.08148728200604
H         4.89824458718486   -2.54246012292161    1.20583144845790
H         5.97117521859900   -1.52342288517521    2.33255031629414
H         1.81358183735524   -0.55792764406622    1.27709422284408
H         2.57287147890388   -2.07915853312640    1.03382759848092
H         3.78157912817074   -2.53115701600611   -0.96725009006768
H         3.03665940886212   -1.59712371038745   -2.27800997115958
H         2.13672909719311   -2.56302733372001   -1.01687980629559
