37
 energy: -49.580012241464 gnorm: 0.132324647753 xtb: 6.4.1 (79825abcba525fcdf90b791dcacef51065a7a4e7)
C         2.31678452729795    0.43776260922714   -2.37371483886280
C         2.16422674957657    0.45421098660337   -0.84624306547556
C         2.61971715284228    1.84617445551872   -0.32309084838707
C         4.13137725042972    2.13230992790297   -0.44512386848953
C         4.92148139328082    1.13713714834129    0.42192236398333
C         4.32201504766335    0.97250241172040    1.81118792638609
O         3.11133272484228    1.75783827030509    2.06468188898982
C         2.13743588328419    1.94677159937449    1.09916732906947
O         1.01388523044481    2.30444337007922    1.45445732457360
C         3.96140842340175   -0.55786381085628    1.96558353669457
C         3.72754729389463   -1.26469618022829    3.44284508557439
C         4.78680116536075   -2.30449536321021    3.05196966365886
C         5.23019511037849   -1.57880268843782    1.81849516258731
C         2.64966548262418   -0.90658795867695    1.17407010249875
N         2.73632622309563   -0.75713112254266   -0.27156504545265
C         2.54729044456228   -2.01677507262499   -0.98648672750058
H         2.15654209570205    1.44791641700408   -2.76348598897513
H         1.58671913383007   -0.21256297946095   -2.87484816241518
H         3.34118718426011    0.10652273332340   -2.56080803147223
H         1.08910644529965    0.43516518041649   -0.64569785821723
H         2.05456076427278    2.56243384181942   -0.93504998614817
H         4.33908979916733    3.18493486392063   -0.20109384716957
H         4.40869312019130    2.01821535682932   -1.49453408773933
H         6.00273374336911    1.32952640789110    0.34277078687267
H         4.81067426951219    0.18727950903391   -0.10825901581405
H         4.97949042925874    1.30162012732394    2.62399992054777
H         2.71866898186831   -1.61031515459821    3.68374112820179
H         4.00058437751072   -0.66318995712074    4.32109139260468
H         4.40757631245167   -3.30878143308241    2.85298357946230
H         5.56161052546535   -2.36459779857384    3.82343746090117
H         5.25287088970392   -2.17530317586660    0.87941262553783
H         6.17674899614705   -1.04749264360582    1.72204447611272
H         1.85375371605383   -0.23414947933126    1.52505520717062
H         2.60114295791554   -1.95035127299833    1.50193231823668
H         2.66436861163680   -2.93289787590279   -0.39175967907838
H         3.23281039139678   -2.07429237992779   -1.83780150258202
H         1.52983723762543   -2.06359941503461   -1.37985568671261
