37
 energy: -49.572200864460 gnorm: 0.152511834078 xtb: 6.4.1 (79825abcba525fcdf90b791dcacef51065a7a4e7)
C         2.32296257319335    0.75546870141137   -2.45749198391025
C         2.11511314862885    0.47500540311793   -0.96254937385559
C         2.64961467516344    1.79423442739134   -0.33591952257857
C         4.17072218661178    2.02608259081028   -0.45575357784579
C         4.92682187174100    0.93420238046165    0.32046382037071
C         4.38556075569746    0.71774553185657    1.72641762671053
O         3.30372111294006    1.62924582942304    2.10793233834642
C         2.33111809226583    1.78447365124505    1.13513384108163
O         1.18427144180910    1.95961297089361    1.54816548427087
C         3.84397729415526   -0.75484089646750    1.91100484039298
C         3.63020073164673   -1.07753690935560    3.51934918462854
C         5.00397414663423   -1.76215453123789    3.51387062259701
C         5.13433558431471   -1.75312430069337    2.02135203489668
C         2.59230137758486   -0.97585297114166    0.98729895848859
N         2.74839221432593   -0.72907004426104   -0.43903978418791
C         2.27902027945899   -1.87927585854873   -1.20732814044294
H         1.63367439194635    1.57992278984951   -2.66525908508360
H         1.98254349192542   -0.08043874610213   -3.08393196350632
H         3.37411099038015    1.02118585980381   -2.59389549560193
H         1.04598627288711    0.54216069158170   -0.74136466276306
H         2.02017200933306    2.59259983458169   -0.75225814564421
H         4.25090284285748    2.99659633839237    0.05648518601643
H         4.45449069308286    2.05731496267847   -1.50916870972510
H         5.99417490091832    1.18918069369775    0.23030391259343
H         4.82133720054721    0.00698508001432   -0.24939677642612
H         5.14917307339045    0.87485757790717    2.49678618530465
H         2.90403598358867   -1.87249006699033    3.70922560513206
H         3.42386118222272   -0.15813855608435    4.08486329610581
H         5.10470591921038   -2.67895991047037    4.09809529137444
H         5.74469353634632   -1.04820455644827    3.88899010662982
H         5.06017201671486   -2.77508709575550    1.58742251967712
H         5.97980545897315   -1.36752432722568    1.45209752813961
H         1.84027921944631   -0.41430056191540    1.55997786514012
H         2.19332288629101   -1.98887275964921    1.10518435769677
H         2.86114106042938   -2.75501363221224   -0.88966903582688
H         2.61670599125285   -1.85707350732488   -2.24822107472800
H         1.21120438183412   -2.09356108409242   -1.12990893997149
