37
 energy: -49.581196454323 gnorm: 0.132654106197 xtb: 6.4.1 (79825abcba525fcdf90b791dcacef51065a7a4e7)
C         2.39921600991913    0.44833231628103   -2.43910629595046
C         2.11765317448553    0.42719733634855   -0.93013638783764
C         2.87634269838661    1.62993299642286   -0.30042274615894
C         4.39021755254632    1.33256888160827   -0.34091192677403
C         5.01748644210136    1.57339894590304    1.04290064402706
C         4.10870559614005    0.99739818169015    2.11940601483529
O         2.93684478138523    1.86779285777501    2.24557515617086
C         2.29664873607553    2.03194847890290    1.02919067179442
O         1.14834772861191    2.46915231058103    1.11155443716838
C         3.75892035152005   -0.53611258393112    1.97145017442042
C         3.89929960680685   -1.43186673390452    3.35511301726674
C         5.00472244062869   -2.26556176940471    2.69255913362967
C         5.02844519629813   -1.42609456885990    1.45182570342134
C         2.48326153855870   -0.81211897698921    1.09664353256867
N         2.68107923172346   -0.78344057903023   -0.34549174962960
C         2.06342879136035   -1.99631616969425   -0.87557778987481
H         2.65345248721366    1.49023987718514   -2.65774381713886
H         1.54838356840413    0.15444925456056   -3.06900340941189
H         3.28846151727920   -0.12864388783112   -2.70455952316868
H         1.03773026866084    0.56078696550118   -0.81884785173078
H         2.72130048264375    2.53587046101564   -0.90222212186271
H         4.86486793035319    2.10477546870066   -0.96470551513159
H         4.68869531483615    0.35743716563073   -0.72977261913861
H         5.09925537400623    2.66085739489729    1.19499674990933
H         6.05869759304165    1.24898469332246    1.12186124323039
H         4.64577197058184    1.02231144314489    3.07449488333040
H         3.05129675109145   -2.08160399766329    3.58760273493447
H         4.33674333557982   -0.94771156484095    4.23937107407825
H         4.79616475870707   -3.33067391615120    2.57408015038646
H         5.95861895446889   -2.19082483692968    3.22510043942830
H         4.99908355888643   -1.86790034480360    0.43096891389497
H         5.86500347966685   -0.72808844500251    1.42913089936654
H         1.70880604286700   -0.08765948307789    1.38684471719164
H         2.16052648552515   -1.81842092499744    1.38385148945507
H         2.50592088082964   -2.85837613393298   -0.35813993075100
H         2.36705530331265   -2.18072388396141   -1.91084946220937
H         0.98147234009383   -2.00979316941870   -0.72952538733312
