37
 energy: -49.563910737540 gnorm: 0.134605344628 xtb: 6.4.1 (79825abcba525fcdf90b791dcacef51065a7a4e7)
C         1.19276704120464    0.59861685241213   -1.61515234862154
C         2.03569940328035    0.25866389073264   -0.37797349993492
C         2.70451264036921    1.62959720287313   -0.07473627548741
C         4.15468604497069    1.70938274960403   -0.59676427195748
C         5.23618192681364    0.91010764685241    0.15018188513990
C         4.66605069044140    0.62555671744052    1.53239185959477
O         3.90956973598578    1.76654789996598    2.05454026675273
C         2.76549238337911    2.10454306180103    1.35223298339743
O         1.94494760754869    2.88701544531703    1.83282574793565
C         3.97395617518166   -0.77521825147673    1.76633740524363
C         2.85217057252700   -0.70423339557362    2.98007662106498
C         3.36587851319840   -2.03362342475697    3.54999854322605
C         4.63324500146979   -1.89059002522053    2.76386177405201
C         3.60483572635863   -1.45663925185616    0.39952100850554
N         3.12106980489195   -0.65423596639612   -0.71485232370072
C         3.04899356414261   -1.54186568048799   -1.87263855292058
H         0.57307296422443    1.45233995885059   -1.32335443436572
H         0.61637092569572   -0.27172598872601   -1.95767873454346
H         1.72080056332412    1.00027700933491   -2.48346925064442
H         1.45125116401698   -0.05943618581056    0.49018397041208
H         2.13151895473815    2.35167393048773   -0.67240398528228
H         4.42654277529475    2.77514879297930   -0.62760398447866
H         4.18161453762305    1.34039176784625   -1.62355733544591
H         6.13854846074939    1.54107353004218    0.15157460291426
H         5.43358099981957    0.03106948823173   -0.46943537986312
H         5.58444552358685    0.73605149823006    2.12026729077561
H         1.79408710717403   -0.63866717272387    2.71272055305950
H         3.14452239645926    0.06289490441271    3.71063814444723
H         2.69347818643433   -2.84020973600509    3.25117789200232
H         3.50832310295951   -2.13057885452977    4.63139282371169
H         5.06042766986444   -2.75166034756603    2.20325861907866
H         5.36569771672908   -1.37392819364649    3.38364474310689
H         2.86103651928656   -2.19901693389669    0.72275112662881
H         4.52901915651870   -1.92106045802811    0.03967680444807
H         3.96377881176580   -1.40652555203564   -2.46554627225156
H         2.22039063997192   -1.32480153791788   -2.55402173703377
H         2.95394240471493   -2.57020625388682   -1.51820431123095
