37
 energy: -49.582738596914 gnorm: 0.138712329283 xtb: 6.4.1 (79825abcba525fcdf90b791dcacef51065a7a4e7)
C         2.06831505952096    0.67719317819385   -2.43885683122722
C         2.02404016415391    0.55207220383836   -0.90944552508702
C         2.66598699712450    1.80617647506892   -0.25077350299709
C         4.16355884960962    2.01156746492613   -0.56218148958506
C         4.94252773642166    0.95984597643178    0.24620701243801
C         4.42006167059956    0.64145532312008    1.63982815633053
O         3.38314084754276    1.55452000865578    2.12754876888432
C         2.38411276775996    1.87927634918367    1.22595825451988
O         1.33189047502921    2.33963535747676    1.67028245384762
C         3.76423031068027   -0.77315611739813    1.89410287915704
C         3.57193000876286   -1.06279802631647    3.51142562727246
C         4.84091301035503   -1.92609831973723    3.49194625257404
C         4.84394002722029   -1.99697674179362    1.99539873264018
C         2.48045894477064   -0.84864420573315    0.99132703123775
N         2.80360885142865   -0.56964251564982   -0.40059274008042
C         2.86543744286526   -1.79333873578590   -1.19576268285640
H         1.83627321093249    1.71420179495245   -2.70111551471766
H         1.46641760290657   -0.11254642730294   -2.90905282450796
H         3.05676755064888    0.41069139425081   -2.82103871933895
H         0.99113990411842    0.43954377260690   -0.56751102899885
H         2.13888471534306    2.68596043189461   -0.64455850753676
H         4.50905689335177    2.96885618260947   -0.14391861321251
H         4.25722567976653    1.90433922608568   -1.64426841083319
H         5.94750207441243    1.39696126033517    0.35270615081599
H         5.09746500299914    0.03431354615828   -0.31502752198347
H         5.22165554437321    0.66619441376649    2.38688300102575
H         2.70498793889404   -1.71949464070607    3.62313882404362
H         3.46140174320014   -0.14623658849047    4.10755832650490
H         4.59853587958877   -2.88964041094447    3.94453594172500
H         5.75276243787472   -1.54212820553043    3.96120309187061
H         4.41876261802924   -2.98166965698908    1.69907615688476
H         5.69775415338158   -1.86006041368589    1.33221496261479
H         1.64085662823208   -0.23703227750667    1.35165798161549
H         2.13830259108102   -1.87121033819232    1.18257939595101
H         3.50114229414031   -2.57470550158593   -0.75754597877742
H         3.30512620402601   -1.58747954272200   -2.17672062325690
H         1.87456991541606   -2.23314250181630   -1.32575068359839
