37
 energy: -49.572415834740 gnorm: 0.151027208137 xtb: 6.4.1 (79825abcba525fcdf90b791dcacef51065a7a4e7)
C         1.80373937866199    0.47829104029092   -2.28060185284389
C         2.02892065805411    0.29898313977929   -0.77267064127020
C         2.53598451410335    1.66842061686253   -0.23764790801543
C         4.01356915990392    1.87889002663763   -0.63049402432515
C         4.97623243455795    1.13344333307053    0.30971404724144
C         4.39297518154666    0.89121431331768    1.69450982991169
O         3.34050849195311    1.81632741977422    2.12257861952782
C         2.30379474829484    1.97121289379791    1.21835280636536
O         1.22916600089778    2.47293011914924    1.54998367189111
C         3.92507094687825   -0.60164952673596    1.91432584553451
C         3.56211316638165   -1.00351909822225    3.47745322643267
C         4.52366726629661   -2.18732876662217    3.30426810701399
C         5.09673113645147   -1.73943987060495    1.99442814144918
C         2.70831173580985   -1.04608592161397    1.02508745155728
N         3.01163744286238   -0.69311491945423   -0.35444632931994
C         3.16281610014372   -1.85178674129245   -1.23090230788852
H         1.02317467342633    1.24354532261809   -2.33640989697641
H         1.29594129223623   -0.39679322890407   -2.70887990582799
H         2.65405107910758    0.74456108924979   -2.91321136222306
H         1.11197747062996    0.04431074148064   -0.23339152904214
H         1.89951784372948    2.35081115867358   -0.81745526769059
H         4.23995069278432    2.95491223245869   -0.58997203483473
H         4.24366964376353    1.68084097549452   -1.67883261682923
H         5.99313866899004    1.55279790159346    0.35899586651012
H         5.07912717118248    0.16893793629879   -0.19500573413163
H         5.22217109412341    1.14976955225366    2.36297001339027
H         2.48503725179151   -1.12855984993300    3.61742149432266
H         3.87938589080706   -0.27971008126174    4.24107229892297
H         4.11893244901269   -3.19878957413237    3.37592161098197
H         5.23261201853132   -2.14278184027304    4.13764516511915
H         4.93222033186998   -2.36603308936462    1.08970709333542
H         6.13145442494253   -1.39908669251556    2.02705920637283
H         1.79736959855736   -0.57605478511936    1.42269876356046
H         2.51681577228604   -2.10398148874382    1.23359690684263
H         2.49650083069793   -2.67253777445737   -0.93243913130883
H         4.21140539676015   -2.11607532450699   -1.40000206078648
H         2.90985794335694   -1.48393586228458   -2.22731617632550
