37
 energy: -49.587423372326 gnorm: 0.119992070112 xtb: 6.4.1 (79825abcba525fcdf90b791dcacef51065a7a4e7)
C         2.30991665825028    0.57274274243122   -2.44622282929160
C         2.14698124324350    0.42073115703651   -0.92732224601043
C         2.65160301118249    1.73123775909113   -0.25900241812120
C         4.12463626699256    2.12530114596121   -0.49726472411542
C         5.04845752553370    1.19152444831053    0.30337125193594
C         4.45727350195719    0.90436123510185    1.67616477344054
O         3.34639310941322    1.77906957341082    2.06034362404997
C         2.27047435658216    1.85067406697530    1.19220717629313
O         1.12640359136278    2.01407504510119    1.61756393774891
C         3.94462191163433   -0.57038464473859    1.91742989082775
C         3.69718053752146   -0.90695630129149    3.51808506911672
C         4.59016283733071   -2.14018856007121    3.32390599520723
C         5.09736165414469   -1.72865251254084    1.97554593983542
C         2.69489265759383   -1.01722812515835    1.07643091904559
N         2.68965088316747   -0.80961804221087   -0.36460307826891
C         2.41857143864823   -2.04818756084677   -1.08986986164305
H         1.61634775326707   -0.10837060282097   -2.94927023314377
H         3.34280497090841    0.38682602178089   -2.77123077844053
H         1.99210873977700    1.57846926612878   -2.73194438789126
H         1.06988654072313    0.52301384034486   -0.76648054529626
H         2.02963214358683    2.48903799669257   -0.75479905094536
H         4.16925198167735    3.19377782969881   -0.23826386423376
H         4.34928405301317    1.96177401373566   -1.55271521149179
H         6.07136794790396    1.59600813326432    0.25405118942188
H         5.11693521873190    0.20411184964820   -0.16130844711738
H         5.27173604467725    1.05082367459799    2.39481296766449
H         2.65614561348010   -1.09732413178064    3.79253944981956
H         4.12074286147018   -0.14303467177884    4.18493907530826
H         3.90047714177804   -2.97957054674075    3.21542104136461
H         5.40828857191131   -2.32951554645276    4.02670752168962
H         5.04049899974363   -2.47494065672328    1.15212400636371
H         6.08587041647340   -1.27442034950978    1.91166378806566
H         1.81679294324516   -0.50603424228536    1.49650388357283
H         2.60540003428699   -2.08451415833068    1.30486365888377
H         1.36343361289688   -2.30561953787863   -0.92524451397181
H         3.15047601184764   -2.80842429212011   -0.79945895280153
H         2.55607525960109   -1.93790753261555   -2.16740115995039
