37
 energy: -49.572994850313 gnorm: 0.136135678050 xtb: 6.4.1 (79825abcba525fcdf90b791dcacef51065a7a4e7)
C         1.53192637584624    0.57675287966489   -2.18416116294516
C         1.98088224900063    0.51742982735885   -0.71731629171121
C         2.80435331691054    1.79101492053675   -0.37293494305262
C         4.32224252891385    1.60775842684110   -0.58343727087018
C         5.10735596896914    1.09039707351269    0.63407522767506
C         4.26065048253723    0.72261292730602    1.84417766727551
O         3.12324253112793    1.62049804861808    2.06066957260732
C         2.42351337601748    2.20986284799000    1.02171939250317
O         1.53753149513600    3.02692196126224    1.27465549784841
C         3.72720208314681   -0.76024686515546    1.95578203576994
C         3.57404250120996   -1.22681815314773    3.53548392949812
C         4.76592206961898   -2.18187393834224    3.38291840547088
C         4.90018823366745   -1.89885653473978    1.91780368733113
C         2.57058637781709   -1.14482761267554    0.96426333668085
N         2.76412130523493   -0.66987350888561   -0.39833391166900
C         3.04581693997607   -1.69305826917431   -1.40197276510456
H         0.89297285338990    1.46401834929923   -2.23424406209397
H         0.86133370339352   -0.25778098162205   -2.43096507226692
H         2.46054787284343    0.64036066211261   -2.75664757613473
H         1.03876867983855    0.61553391806671   -0.17026747264255
H         2.44342113111269    2.59603588638522   -1.02760467214052
H         4.73342335587457    2.58607181961976   -0.87420806160140
H         4.47442912983250    1.02708260801796   -1.49494058940930
H         5.89068240613700    1.77246264891462    0.99954956154048
H         5.61696606283659    0.14294850899457    0.43852775154943
H         4.80461121495755    0.82355820305655    2.79031321255352
H         2.53310410541495   -1.52710622402466    3.68243005235540
H         3.73919116200078   -0.42394327981081    4.26746303859603
H         4.57022540607871   -3.23883374973216    3.57406293877473
H         5.66540585931543   -1.91871231464014    3.94929220424398
H         4.79182490351927   -2.68900220332079    1.14183316916694
H         5.81519154311221   -1.47887423107865    1.50074113976274
H         1.60297605558013   -0.83412919525591    1.38383018932152
H         2.57211991902653   -2.23984836965385    0.94952846996207
H         3.55831441272389   -2.47135467351571   -0.82034607182867
H         3.74133170339113   -1.23030954570060   -2.10915416071956
H         2.22759016786212   -2.00376442704500   -2.05474325697081
