37
 energy: -49.573239596375 gnorm: 0.139847165694 xtb: 6.4.1 (79825abcba525fcdf90b791dcacef51065a7a4e7)
C         2.25664285187964    0.65821479177418   -2.40456341142868
C         2.00596355079082    0.41439839827531   -0.90976311751346
C         2.48884516271251    1.73598136997142   -0.24721812962308
C         3.97217264086623    2.08328136156375   -0.49420831350661
C         4.91902446606963    1.05798197039996    0.15281205920516
C         4.52553380777430    0.77222198431226    1.59504283734794
O         3.44987767925930    1.66063098137265    2.04276668661493
C         2.32645077108689    1.80806468347621    1.24742744675725
O         1.23862584364050    2.15272910448211    1.71042800213257
C         3.92933503532420   -0.66910097488673    1.84610269175528
C         3.66729398036795   -0.81630135898363    3.47283906988141
C         4.50230333988078   -2.10320058027453    3.42151200277175
C         5.07621655556993   -1.81324740806945    2.06827951209243
C         2.64045136949429   -1.03062319096644    1.02339244513886
N         2.80962484703179   -0.68008371134726   -0.37953693032655
C         2.74985727570248   -1.92038870381914   -1.14870648764542
H         1.44439432056587    0.25253054422671   -3.01585918309947
H         3.16601973246380    0.21445984524220   -2.83254553280324
H         2.37145514051295    1.72576600422450   -2.60773099923431
H         0.92629216985322    0.26265779489054   -0.82173314386462
H         1.89731932152577    2.59131103860189   -0.60138134070701
H         4.12700805209988    3.13078492489289   -0.19508175858530
H         4.12907380823863    1.92704652221763   -1.56292538602944
H         5.97832794571027    1.33967326749164    0.04835444812545
H         4.93357593508615    0.14369194115257   -0.44673946951733
H         5.26093187028657    0.99060371756715    2.37782939483483
H         2.65809401299396   -1.10771359413841    3.77601090740427
H         4.03333501345073   -0.00419249644344    4.11639848188817
H         3.92257592711650   -3.02820065413796    3.40452811852636
H         5.28740770085658   -2.19717755917274    4.17906324225726
H         5.11476141881711   -2.69951972889793    1.39653648632260
H         5.98566646096925   -1.22103043897901    1.96960178582790
H         1.79809740613074   -0.52923747031126    1.52127972665750
H         2.44395646434493   -2.08611434703465    1.23930466174006
H         1.70755319852334   -2.24333203936770   -1.02222179404868
H         3.43818756393296   -2.59197081266228   -0.62605786641372
H         3.00379888587850   -1.84668123244179   -2.20805702127104
