37
 energy: -49.563115813234 gnorm: 0.166259303385 xtb: 6.4.1 (79825abcba525fcdf90b791dcacef51065a7a4e7)
C         2.23304489365971    0.49756834653524   -2.42409035497971
C         2.12801737037522    0.47954773132787   -0.89263387920870
C         2.69847975350440    1.80571009948389   -0.31419796038563
C         4.22582496428213    1.98427753736374   -0.44539282905121
C         5.11832206885258    1.10201809132374    0.44425303677316
C         4.40375401332477    0.88471691198831    1.77041139125094
O         3.21878510483245    1.69405159150661    2.06636636703478
C         2.25683037264202    1.98308745551016    1.11374336878468
O         1.13845443647936    2.43984158204442    1.35277699954909
C         3.88410574030646   -0.59020009849624    1.99509205908522
C         3.88079476309543   -1.17298452770344    3.54330265522383
C         4.57910296094848   -2.42644341918465    2.99815022463999
C         5.02333446050549   -1.73618531638300    1.74479890681355
C         2.57953632313778   -0.86550215493452    1.16378043363072
N         2.80233566352910   -0.64637476916673   -0.25820834692325
C         2.44305477926127   -1.89868080909742   -0.91866068347558
H         2.00919907838687    1.46276621326853   -2.88916672554260
H         1.69624746797122   -0.39242619238729   -2.78019667502328
H         3.21675976395410    0.10344366772183   -2.69072740286054
H         1.06240242939176    0.33594783634763   -0.69186371630714
H         2.15539528297732    2.63344887836957   -0.79046576404090
H         4.31153164796326    3.02647250286704   -0.10305024655396
H         4.58116447827771    1.82147555409566   -1.46441825151198
H         6.03365095339869    1.67963652220542    0.64652817753715
H         5.31290018473827    0.11656341110015    0.01225943891740
H         5.02082498678403    1.25634544249231    2.59646910355594
H         2.88309764827500   -1.28926806278438    3.97504034782024
H         4.48801424709613   -0.50277617807570    4.16762695487327
H         3.91616258023637   -3.28466700691674    2.87181817019846
H         5.44544885183406   -2.69309327012954    3.61251743254228
H         4.83551461276241   -2.12719396777330    0.72008480792565
H         5.95642533872753   -1.17327076920766    1.73970050951559
H         1.75765201356426   -0.22037786635722    1.50606749202139
H         2.34061969942901   -1.88837871767228    1.47350985406663
H         2.35927100169388   -2.78301989866987   -0.27243068096970
H         3.00166874695891   -2.09633132682129   -1.83891467106813
H         1.41101958167817   -1.97065664903526   -1.26775310885429
