37
 energy: -49.578973012326 gnorm: 0.147629893628 xtb: 6.4.1 (79825abcba525fcdf90b791dcacef51065a7a4e7)
C         1.97671195622167    0.38697189755101   -2.34470186304294
C         2.03849020264111    0.48853420192029   -0.81415195141292
C         2.67125426938321    1.80655118299287   -0.28390389453296
C         4.18467594519303    1.95332714639934   -0.54827772804221
C         5.00310173859493    1.01512356520390    0.35524641278729
C         4.37947325191960    0.82973622579646    1.73119784925310
O         3.48815565460637    1.96204287351656    1.99614671800820
C         2.37102970375093    1.99313922654320    1.17916941935598
O         1.36770137011995    2.60219858896547    1.55186921696114
C         3.77042808908750   -0.60122990743230    2.00921910879970
C         3.69635750324932   -1.17754715093103    3.55808213542778
C         4.42849934318269   -2.42150204678831    3.03603879659597
C         4.92666538077775   -1.73824122022511    1.79923944349689
C         2.50260902870743   -0.90889388078490    1.13357687868226
N         2.81497362099934   -0.61225310477701   -0.25715712709924
C         2.87625024768229   -1.82107973822232   -1.07479629473365
H         1.15737311822478    1.04308813921415   -2.65487159076009
H         1.68605860846523   -0.65929706151810   -2.51172093473586
H         2.93557356319607    0.60385319954744   -2.82185115225213
H         1.02625589422771    0.47114427783924   -0.39997311543287
H         2.12523391800897    2.55422066633577   -0.87532201411026
H         4.41884934823931    3.00674586004815   -0.33336783206332
H         4.49015294388462    1.66343619839894   -1.55516924340258
H         6.01350853690106    1.45265946772119    0.35017770396460
H         5.10075256332740    0.02209994656619   -0.09193191875425
H         5.14972790182347    1.00934100749497    2.48995051208926
H         2.66595621759759   -1.25029846511085    3.91627100272466
H         4.27987463617981   -0.49845651284236    4.19527851362446
H         3.75766463401896   -3.25364831647135    2.81352847873645
H         5.21549555074762   -2.84609858662133    3.66806661123917
H         4.89093834886005   -2.39728539088588    0.90336702155571
H         5.92091774364710   -1.33901863829604    1.99833974623882
H         1.72372373391065   -0.20530566727501    1.46090076515046
H         2.20028415500946   -1.93777756992839    1.35558578061657
H         3.30503236180066   -2.62456988837057   -0.46059922225763
H         3.64683169978135   -1.70120440589368   -1.84279162545284
H         1.93377004101882   -2.21302960929004   -1.46241601746877
