37
 energy: -49.578121759132 gnorm: 0.133162274732 xtb: 6.4.1 (79825abcba525fcdf90b791dcacef51065a7a4e7)
C         2.01326819566458    0.49589305599102   -2.44883871697225
C         2.16863515152800    0.45521919839104   -0.92210323835704
C         2.83855438942017    1.72771359383698   -0.32991377927425
C         4.37015623616942    1.59182328724846   -0.46262198213379
C         5.16127473418561    1.55512779120320    0.85616062441082
C         4.28101471826841    1.00474017224456    1.96914718787659
O         3.05352112291839    1.77341914736336    2.19085740825884
C         2.29569801811261    1.98043941818920    1.05101706654931
O         1.10807391309292    2.28704640167442    1.16086844832131
C         3.85704734897186   -0.51707025551631    1.95363554817098
C         3.81086994384791   -1.29298083791049    3.41392152406921
C         4.67209267548763   -2.43280730133429    2.85260544441699
C         5.09851850891098   -1.55445190438320    1.71623393893823
C         2.57633674487343   -0.81456269251767    1.09337384488294
N         2.76989880030448   -0.74209600609083   -0.34780302272039
C         2.46124376311056   -2.01661611767669   -0.99113887003960
H         1.16891372180978    1.18610322577270   -2.54203398458574
H         1.76610392246905   -0.49681225743774   -2.84946254499696
H         2.92896589944945    0.78454839719534   -2.97066275961592
H         1.17579704490253    0.68137110065151   -0.52261277510316
H         2.50615960114486    2.56911025736866   -0.95320233435030
H         4.70118432004629    2.53060649060504   -0.93147264015125
H         4.63451231957933    0.73908122435601   -1.09041997057880
H         5.46425615178526    2.52105645917192    1.28925337472853
H         6.04246960941237    0.91127995824027    0.78866536392899
H         4.90904617094210    1.20074741901997    2.84573908899365
H         2.82414918589430   -1.52349273063463    3.82448850036926
H         4.31452492337816   -0.75904070475259    4.23179386032198
H         4.06580761565841   -3.28635605666454    2.54297597298481
H         5.48427616357529   -2.78510212272118    3.49708255773962
H         5.16595954544968   -1.97014702284989    0.68625708918216
H         6.01358425632354   -1.02034050275089    1.97106143300804
H         1.78509675400971   -0.15922208959108    1.48491895038521
H         2.14086083612665   -1.79879264431974    1.29571528799649
H         2.95865688667414   -2.80195139727078   -0.40588913682466
H         2.80842476254523   -2.11602930263015   -2.02436927343833
H         1.38042534557320   -2.17006972429252   -0.97049348940438
