37
 energy: -49.576111056067 gnorm: 0.150231502640 xtb: 6.4.1 (79825abcba525fcdf90b791dcacef51065a7a4e7)
C         1.59068211565236    0.43941115605671   -2.27685672762983
C         1.92811947061354    0.36159830831604   -0.78126465283649
C         2.53682024593097    1.70934246277100   -0.29981771556702
C         4.02910700483572    1.85655304020609   -0.66490828237085
C         4.94109385495313    1.10712327583937    0.32151840282125
C         4.45165343730503    0.80636412395642    1.73095634780280
O         3.24717244467752    1.57263950258113    2.06082130337284
C         2.26685395941005    1.95354386782217    1.16066755643764
O         1.34336183454873    2.65273482060951    1.57878293586301
C         3.98221733670709   -0.69234225697996    1.90243483976471
C         3.57937914544404   -0.92975121878952    3.48924393744069
C         4.57556354417143   -2.09701864658810    3.45625754007539
C         5.10148759050039   -1.87235485999033    2.07147687778783
C         2.76704144758161   -1.13393503096967    1.00962187682402
N         2.84725837221743   -0.69480613181089   -0.37617734643561
C         3.27385747188850   -1.65930108963214   -1.38677772173586
H         0.98289368142054    1.34232929502789   -2.39236414298562
H         1.04241079738402   -0.43872499198433   -2.64472753270407
H         2.49601769607427    0.54339285754408   -2.87991544303925
H         0.99554538859948    0.22574690495787   -0.22600365203028
H         2.02126895548355    2.46507481369016   -0.90809292555293
H         4.27407351686017    2.91237753557288   -0.47532854117696
H         4.34969087505414    1.55656407722197   -1.66411600512474
H         5.88399884739370    1.65363424470903    0.47849354906857
H         5.22710150846529    0.17169133869625   -0.16711925852348
H         5.15848399102543    1.05618270103569    2.53047929556953
H         2.51426100893870   -1.11015616953108    3.65745881760460
H         3.87690785924545   -0.15483325832523    4.20942057270162
H         4.19182663970467   -3.11641581965139    3.53090910330992
H         5.34687846384089   -1.91453572134703    4.21182202425899
H         4.86843250540909   -2.61092194031651    1.27247309748446
H         6.08405103950736   -1.40119245671526    2.05996935829744
H         1.82620048828292   -0.82833680757555    1.48948395225671
H         2.71549606159201   -2.22603192661994    1.07252949615168
H         2.60406841447894   -2.52887692080324   -1.43047039719938
H         4.25259154091574   -2.12008918986919   -1.22023452505019
H         3.28445481052330   -1.06493774114526   -2.30261755399278
