37
 energy: -49.568062484093 gnorm: 0.147931083682 xtb: 6.4.1 (79825abcba525fcdf90b791dcacef51065a7a4e7)
C         1.78855134331164    0.58370434577364   -2.27588979264750
C         2.03397804189717    0.44704454346142   -0.76665013739990
C         2.83506697719296    1.68474111804718   -0.27158866466405
C         4.32778559292329    1.40312080090586   -0.54428445832076
C         5.12662409026617    1.38470621211462    0.77021946682945
C         4.27252376171154    0.96721988214408    1.95880733450810
O         3.09743903292961    1.81758231854633    2.16574433707701
C         2.29625571459448    2.09713522132930    1.07196889253243
O         1.20555800646750    2.64969730821280    1.21886962123082
C         3.84941743403213   -0.55488064248471    1.96813331229857
C         3.77347229034791   -1.25679017594505    3.46418146412660
C         4.60582646652141   -2.40593651062589    2.87883204927690
C         5.14954550660655   -1.53065390735584    1.79120280511567
C         2.62099278430416   -0.95192517020756    1.07253287206688
N         2.84731123644278   -0.68520769776142   -0.34074354480694
C         2.68501131031305   -1.92785852055974   -1.09109555894921
H         1.40740987436911    1.59338734573194   -2.45832152341829
H         1.03428653974147   -0.07685461986548   -2.72511126299149
H         2.72472176363049    0.49164859972275   -2.83197900651927
H         1.04470887677801    0.36545594953802   -0.30713447852605
H         2.46866176081866    2.44114541469524   -0.97906518562573
H         4.72401570045582    2.20216026121773   -1.18868501177144
H         4.44121694633141    0.43298673233075   -1.03127182967130
H         5.59291095354238    2.37079348434690    0.92053151420661
H         5.90097283622078    0.61969438689755    0.66658074289938
H         4.95158199193617    1.09809923774003    2.80910506253726
H         2.69809637913439   -1.45025906121308    3.50232965045036
H         4.26764226064409   -0.62051505232261    4.21159405253218
H         3.99693482841733   -3.24673569342779    2.54074156961954
H         5.37269865982998   -2.69862917583301    3.60363716560689
H         5.23775692145093   -1.96634621221320    0.77110770863639
H         5.98840532812256   -0.89804238124099    2.08046778075991
H         1.65408824221963   -0.48097329653215    1.30087371663163
H         2.53425061142045   -2.04259368691135    1.11952142236368
H         3.37840270158370   -2.67134555887055   -0.67501386858587
H         3.04158716919995   -2.02771018483076   -2.12107905377046
H         1.66178504195468   -2.29604630380972   -0.99317488916614
