37
 energy: -49.583683061436 gnorm: 0.142571038051 xtb: 6.4.1 (79825abcba525fcdf90b791dcacef51065a7a4e7)
C         1.89751819014575    0.63592799393758   -2.33757922046100
C         2.00711345967796    0.50880546155266   -0.81162272631376
C         2.71330634229308    1.79056483471319   -0.28521352529515
C         4.23572049462878    1.82888541936185   -0.53555037530620
C         5.05797905744563    0.85445225907681    0.32513160534000
C         4.39600609928309    0.67194967080814    1.68344229307094
O         3.33952905857671    1.61340674148022    2.06328194215247
C         2.33724529650477    1.93689624853127    1.16485495360586
O         1.31117779302045    2.50252603214697    1.54403116600109
C         3.80820232954660   -0.78234376177149    1.87162649918385
C         3.51627952764871   -1.07134637876509    3.47408189804886
C         4.77984476999397   -1.94268920930771    3.48629889641949
C         4.96801770676533   -1.92782054131649    2.00000913084472
C         2.49709756479460   -1.00570515584987    1.03503483408589
N         2.76147724904525   -0.65075010514958   -0.35198310431343
C         2.85627817728743   -1.74464332823480   -1.31529035632549
H         1.38376070256398    1.56627660034777   -2.59933220856826
H         1.29155753718583   -0.12342886872729   -2.85065066581726
H         2.91472434232214    0.81005894916371   -2.69687656491134
H         1.01092312077945    0.42636682681260   -0.36746792455683
H         2.30409878606264    2.70108134611286   -0.74394233410468
H         4.65566142672842    2.80011689999776   -0.23376658935376
H         4.42311844393109    1.69831265308088   -1.60279741238103
H         6.08718770159024    1.22182795295301    0.45985324983276
H         5.08063676838829   -0.11629318988138   -0.17760088082039
H         5.11851184234403    0.87742352702113    2.48157865797982
H         2.53687118225391   -1.54369412244995    3.58794910286471
H         3.47104030777893   -0.26380364115558    4.21806019410316
H         4.69509797679904   -2.95422215678465    3.88831449337190
H         5.64003390250623   -1.49946810903323    3.99887486543764
H         4.57242141669019   -2.76022909946232    1.37646874372672
H         5.90934180784113   -1.55515036854283    1.59679300647290
H         1.82460339537259   -0.23581387138776    1.43982936772583
H         2.19102012184779   -2.05064512063443    1.15211173240646
H         3.62056335054642   -2.49364402420592   -1.06718816761474
H         3.29669406231105   -1.29552841925712   -2.21100925523257
H         1.88815963843676   -2.22496562165785   -1.47078852739233
