37
 energy: -49.580138065807 gnorm: 0.143839829856 xtb: 6.4.1 (79825abcba525fcdf90b791dcacef51065a7a4e7)
C         2.04519040426822    0.46211315959668   -2.37646173886576
C         2.12031772393033    0.42490530783040   -0.84359321541084
C         2.68673560267970    1.79060636435477   -0.36114791002071
C         4.20471065767666    2.03469529952292   -0.49551369764843
C         4.92007258176737    1.02438640290070    0.41768718211892
C         4.38419012313003    0.89044583792621    1.83593018874954
O         3.24203765731160    1.76922328317420    2.10050766745487
C         2.37336756814165    2.10646650834985    1.07675549250895
O         1.30146213225639    2.61651040434832    1.40447507793475
C         3.94517525223780   -0.62010749023858    1.98218514620275
C         3.67952345996050   -1.19659917257373    3.50982750637314
C         4.53235414489359   -2.40447612533178    3.09788358234729
C         5.14012876541251   -1.73355131954507    1.90408405316535
C         2.63486793038859   -0.86924124136533    1.15164394119602
N         2.80424438032937   -0.73646347654803   -0.28828317790332
C         2.73771620199644   -1.98084878605642   -1.05027374888756
H         1.44861960769715    1.34966018632825   -2.60964292964257
H         1.45372614343897   -0.34900674626185   -2.82290096880482
H         3.07955135997708    0.46389458850822   -2.72890855751478
H         1.11506188456877    0.44627699772838   -0.41293239867493
H         2.01274371578524    2.52756527051882   -0.81891396688377
H         4.46269461050693    3.09471604515096   -0.35228412571223
H         4.43448466278944    1.81071476875763   -1.53869158709640
H         5.99650457354447    1.25607432627662    0.41732955938234
H         4.81094671689723    0.08174162284558   -0.12555531885995
H         5.07813218787869    1.11237269123397    2.65473943344830
H         2.63795665182424   -1.46766729580104    3.70212802371987
H         4.15102875294845   -0.51038860135632    4.22709550132634
H         3.86218231688948   -3.19524376957380    2.75502250570222
H         5.19670301660733   -2.74574553623248    3.89868329379405
H         5.07839349959929   -2.32585196303457    0.96409908366912
H         6.07333750848057   -1.17456418334704    1.96898540668832
H         1.96231807938512   -0.09848918506513    1.55470418745134
H         2.12735062994374   -1.81752883277053    1.35771856032514
H         3.40235096876577   -2.76228274222396   -0.65745043876932
H         3.09854134833327   -1.75739647673826   -2.05916272744655
H         1.71033531360269   -2.26135180641226   -1.29100025218058
