37
 energy: -49.562009535310 gnorm: 0.155404193769 xtb: 6.4.1 (79825abcba525fcdf90b791dcacef51065a7a4e7)
C         0.76914361114340    0.24405772795213   -0.93299843393939
C         2.11905495780177    0.27781548023215   -0.20271478456204
C         2.73684267960561    1.69958604070349   -0.32773031895497
C         4.24094831034011    1.74944038596744   -0.66987451375050
C         5.15694797156917    0.83087469911948    0.15691703928934
C         4.53846146010220    0.50118701510435    1.50795505678599
O         3.60417898331290    1.52086317681788    1.99183525294214
C         2.84695307840183    2.23114575066858    1.07614052533133
O         2.16724231906658    3.13978058211724    1.55457776734670
C         3.91038309886120   -0.94040044010304    1.66039857484421
C         2.72609424345228   -0.89795739069887    2.81463563083555
C         3.57633167241071   -1.80032302837449    3.71952085556382
C         4.68814960918100   -1.91151412338662    2.72143027717501
C         3.53133995594998   -1.65431068129198    0.31301963677356
N         3.15331599195353   -0.64112550034717   -0.66179422843984
C         3.43326090239886   -0.96986070337079   -2.05718464368129
H         0.16553524735544    0.92129191521112   -0.32060909011128
H         0.25313730127754   -0.72569761847051   -0.95211674377075
H         0.63363998423029    0.64550842719341   -1.94027228411736
H         1.74164951794248    0.03649725476560    0.79518071425694
H         2.17744273873485    2.29309271589225   -1.06376344400945
H         4.52567667984516    2.80576192693917   -0.55227782413791
H         4.44083219442736    1.55852727495469   -1.72570692938412
H         6.08499269826080    1.39848315236624    0.32703134153218
H         5.36236370622378   -0.10121428303995   -0.37657573315746
H         5.34985044690772    0.62830395870176    2.23372697473331
H         1.84400862550454   -1.37441923491524    2.37848439193459
H         2.60602656438270    0.13588517751472    3.16738037806025
H         3.04798928496365   -2.69818696795289    4.04615846165009
H         3.86148135433146   -1.28070031188653    4.64027397078116
H         4.82620106520566   -2.96528420033229    2.39171305821881
H         5.68643197091558   -1.54517716037909    2.95973030386331
H         2.74091920160845   -2.38294300931615    0.54360483585109
H         4.49351107276354   -2.11188116088311    0.05974919695434
H         3.57090199423094   -2.05722271026844   -2.13058318795779
H         4.39796344546503   -0.50201323811627   -2.27729924273357
H         2.64292013120978   -0.72586525575821   -2.76990503809797
