37
 energy: -49.577316138798 gnorm: 0.141169503898 xtb: 6.4.1 (79825abcba525fcdf90b791dcacef51065a7a4e7)
C         1.87359889525313    0.53926736897319   -2.36282386683302
C         2.05991354759298    0.39537938652125   -0.84582103246787
C         2.84253758560235    1.65037018777936   -0.36496777859780
C         4.36886096408508    1.42195700983436   -0.37176682238889
C         5.15234651568484    1.48875699498274    0.95038700900930
C         4.23954984750050    1.03178496534638    2.07932550840600
O         3.02529784725019    1.85038843081704    2.12669382256563
C         2.28990749210623    2.06223286250389    0.97312881809174
O         1.14218821416009    2.47936898808937    1.13207563160131
C         3.88995907617232   -0.50081623207616    1.92179521057702
C         3.74825400923894   -1.26847889468701    3.38029390479810
C         4.68648444801776   -2.34719063475715    2.82164434394351
C         5.13261728942093   -1.52806878288211    1.64917162396004
C         2.59775616630665   -0.85557525376350    1.10135063823426
N         2.81160629273185   -0.74408010945780   -0.33445764576253
C         2.59978268421677   -2.00771877925234   -1.03581243497824
H         1.07362094246819    1.28177888280493   -2.44481072811094
H         1.56078847088947   -0.38161163789789   -2.87388645029417
H         2.87371021710249    0.72464000253166   -2.76224702913950
H         1.12556186658206    0.61541431941758   -0.32138191531931
H         2.64437302501186    2.50470143610874   -1.02661133152930
H         4.80577224226316    2.24301434896744   -0.95971904347448
H         4.55365178820616    0.48652548349382   -0.90280702033788
H         5.53730062328668    2.47870567928222    1.24055454130092
H         6.04091622707359    0.85467759676083    0.88724244384465
H         4.72048281235796    1.26196273006726    3.03691486742802
H         2.71348623361082   -1.52735814077641    3.62020226487168
H         4.20229103596571   -0.79643806611837    4.26273563054031
H         4.25398136735392   -3.25606470091547    2.39869460590217
H         5.47460488048837   -2.60261721870030    3.53769452102154
H         4.87721156777770   -2.01882277472005    0.68370205829320
H         6.13549713662779   -1.10684212753040    1.58316045272457
H         1.76010727634394   -0.24951732887853    1.47535295760791
H         2.33992991969659   -1.88465700847021    1.37302379571666
H         3.09651493486114   -2.84810976391208   -0.53213731028369
H         3.10221927290283   -2.05088966877071   -2.00724253845232
H         1.54730008553376   -2.26015224884733   -1.17968882960235
