37
 energy: -49.565099083293 gnorm: 0.151726866196 xtb: 6.4.1 (79825abcba525fcdf90b791dcacef51065a7a4e7)
C         0.99472476624608    0.45025435264279   -1.33914030033726
C         2.16613388135337    0.28309953244571   -0.36109407198943
C         2.76452334059535    1.69972594484249   -0.12909885550719
C         4.22046281880293    1.87358508011753   -0.61065374089886
C         5.18018501497472    0.95068945023966    0.15980037719604
C         4.70733420902874    0.48111044253920    1.52816836520969
O         3.86845590768195    1.55028573757614    2.07580938850573
C         2.77458951469801    1.98696020178674    1.34837485409973
O         2.10689122944165    2.84314475508379    1.92945419735596
C         3.91043217238987   -0.87858064840637    1.63809178862847
C         2.65186427074261   -0.92036066267088    2.71087599262490
C         3.58558356364101   -1.51566622595860    3.77377968893742
C         4.66089534595006   -1.79201686313889    2.76778650395204
C         3.53167636971380   -1.62276203207979    0.30711107218025
N         3.21049121908595   -0.66142162993215   -0.73805550189039
C         3.12304823975569   -1.32976589863482   -2.03390275597591
H         0.07616953705119    0.89001258217702   -0.93804318586405
H         0.73133220306385   -0.57142126721255   -1.64550080050017
H         1.17035757677591    1.03802571256616   -2.24346461391564
H         1.65690934375847   -0.09285338746481    0.53099032718892
H         2.04124066162710    2.42908607583139   -0.51873872437484
H         4.46605767849843    2.91648835012804   -0.36015351128706
H         4.15665125861532    1.78003927047926   -1.69617699814705
H         6.16831695921678    1.42890492884042    0.24518458540890
H         5.29539376424975    0.08854990319497   -0.50280236244369
H         5.49482794721872    0.49932376903072    2.29025600979361
H         1.99673552173654   -1.70842433354783    2.32998125149092
H         2.10576625113777   -0.02012155060295    3.02555366958985
H         3.35634326552620   -2.40980416237070    4.35684374723678
H         3.70359847419129   -0.72582792779150    4.52300085288324
H         4.73532449188982   -2.84762109626008    2.42374719857323
H         5.69628212959465   -1.46540944701847    2.86190962841967
H         2.71142936698503   -2.33897443129214    0.45901314000026
H         4.37648133257092   -2.18223747388112   -0.10831848799354
H         2.11918730655854   -1.67378280554143   -2.31781146084464
H         3.81271306530418   -2.17909640439562   -2.00255289097188
H         3.57385570723904   -0.68264442268902   -2.78898494428090
