37
 energy: -49.573592753394 gnorm: 0.158370939065 xtb: 6.4.1 (79825abcba525fcdf90b791dcacef51065a7a4e7)
C         1.82390098991710    0.47323377644873   -2.29216061606733
C         2.01067244967863    0.39077810882983   -0.77063770129112
C         2.84737809949107    1.63333087260295   -0.35265634419914
C         4.38269113030567    1.52789275992878   -0.46918341585039
C         5.13912601398791    1.49054197849480    0.86977654648564
C         4.22217863895744    0.95078020689645    1.95807248062721
O         3.02254224762215    1.77893565296387    2.10570170293372
C         2.31625922662698    2.12586668479752    0.96675815096105
O         1.32360889957292    2.84128326596990    1.10586467735097
C         3.87313298846958   -0.58991261756309    1.97620116344149
C         3.73821474007709   -1.31934045312526    3.45482782335144
C         4.76757016848256   -2.31806186591241    2.90804847981188
C         5.21824294109203   -1.49009315029969    1.74355319881751
C         2.68712853965433   -1.07376200270475    1.06622599516168
N         2.74329775441852   -0.80167619331329   -0.36294256555159
C         2.36667184307763   -1.95097204932303   -1.18198006262663
H         1.57626010785983    1.50249140294884   -2.57021213445426
H         0.95916163592123   -0.11042391402861   -2.63657754562545
H         2.80610844519492    0.21617946328708   -2.69628451515598
H         1.10578242282987    0.54107268696667   -0.17477665009036
H         2.56574834458172    2.49021108967712   -0.97984391371572
H         4.81139227083070    2.34807124800984   -1.06436154394122
H         4.50317904815821    0.57019956049678   -0.97858491180160
H         5.41951236868557    2.48880129395198    1.24024528822790
H         6.01439347746810    0.84499444649687    0.75674868918586
H         4.67541402904070    1.13349340765887    2.93911747105044
H         2.75065017026022   -1.78582365909218    3.50410735150027
H         4.07787120286510   -0.70682358890021    4.30166437135440
H         4.44466521801774   -3.33248011971107    2.66579765166779
H         5.57263278577591   -2.43248790101024    3.64145510512549
H         5.21610588489419   -2.10141753785582    0.81377851418739
H         6.11939618192798   -0.87968370096160    1.79722350715970
H         1.79263278506902   -0.64118066655179    1.53695982072886
H         2.69143930572102   -2.12947460870190    1.35733120388633
H         2.89588083941967   -2.80266420042580   -0.73337457184708
H         2.93494984983290   -1.84376574254789   -2.11125376513982
H         1.29614566417828   -2.16559363566487   -1.17463382769842
