37
 energy: -49.572100107823 gnorm: 0.145455714990 xtb: 6.4.1 (79825abcba525fcdf90b791dcacef51065a7a4e7)
C         1.49726455091605    0.42096242524725   -2.21569619491641
C         1.97065672747223    0.37107719434711   -0.75620115533732
C         2.61323640756525    1.72155646684191   -0.32956409439983
C         4.11158179357922    1.89731543530844   -0.65506634695346
C         4.97941718118064    1.07420071067469    0.31227353756544
C         4.38400837237482    0.79870806353628    1.68563270451025
O         3.22872587446437    1.62275474710168    2.05036916873897
C         2.28667346625298    2.00725670621037    1.11170803554321
O         1.26326236752368    2.57709369211241    1.49176287857127
C         3.88216175552273   -0.66733769778929    1.99345681842052
C         3.63766024630021   -0.93151390711107    3.60808823831225
C         4.56408898328742   -2.14619386165348    3.45886656525863
C         5.09643856023812   -1.75581962686757    2.11391330213671
C         2.82895873476803   -1.13096800963601    0.92360547507561
N         2.99865187676539   -0.60771632531579   -0.42440058856409
C         3.26365413282233   -1.67843015839307   -1.38194752663847
H         1.06312329277598    1.41962014049038   -2.32621337253524
H         0.75878261131162   -0.38421394866556   -2.33140659473897
H         2.22804267613989    0.36966106455165   -3.02653281050708
H         1.04526628722428    0.31079802240632   -0.17612895611604
H         2.05048316475082    2.50637906735596   -0.85328684624784
H         4.27325658979551    2.93900408630007   -0.33969284628869
H         4.21180157123401    1.59268040421401   -1.69830024241279
H         5.93840471872308    1.60422304583546    0.42092189623366
H         5.26078717720124    0.12043288026749   -0.14243283510308
H         5.05765817215072    0.93718995125074    2.53902265545568
H         2.61419749542332   -1.29361843094005    3.73740621814137
H         4.03189975115859   -0.15087851313086    4.27356487053488
H         4.04597176716781   -3.10258517479115    3.36469826318831
H         5.28186644153932   -2.32370611951425    4.26657277962710
H         5.07443377930407   -2.50632542579920    1.29265824386673
H         6.08364696164121   -1.29485706965963    2.09176722978367
H         1.84618377303977   -0.75349188298956    1.24063030244423
H         2.82171987213767   -2.21989691980173    0.80753935104197
H         2.36761670881176   -2.30904643346712   -1.46023297904278
H         4.03577751259182   -2.31453728495026   -0.93790259193682
H         3.49375269845711   -1.33284614917542   -2.39178366693848
