37
 energy: -49.585759299760 gnorm: 0.133300058785 xtb: 6.4.1 (79825abcba525fcdf90b791dcacef51065a7a4e7)
C         2.25135677145894    0.48590538396862   -2.45904358386252
C         2.09814920081063    0.44412422887850   -0.93211979958468
C         2.71057166735019    1.72535058834941   -0.29799061196836
C         4.23125783262824    1.95763043328935   -0.42225446448324
C         5.16167887037423    1.15647293414260    0.50449574468800
C         4.44470385366677    0.93958164031660    1.82942152275612
O         3.26121247554398    1.76540054675716    2.08266963755733
C         2.27764274660722    1.94942052890566    1.12605242769473
O         1.20027449007517    2.44568869517591    1.45699307828755
C         3.90402923131061   -0.53827886167631    1.96904687321400
C         3.74960041245257   -1.15442076192551    3.49650411617350
C         4.49702731318565   -2.39573483159245    2.99006841787698
C         5.04697624104665   -1.69330300592412    1.78639358406371
C         2.60676199753936   -0.84404704869205    1.13695604031456
N         2.69975288238809   -0.72966729863599   -0.31148395259133
C         2.38559381183821   -1.98817982432145   -0.98304984969763
H         1.94766879740809    1.51350286415022   -2.68226308438926
H         1.54133951863890   -0.26175062640767   -2.83843712534625
H         3.22269999582172    0.18094382279412   -2.85605152831479
H         1.03103255514625    0.52187098255706   -0.70478235980340
H         2.18693167529383    2.47549702433263   -0.90627076442643
H         4.36395607378804    3.03898141000337   -0.26802842691813
H         4.46711737084467    1.77188970576816   -1.47156573563692
H         6.09596435537399    1.72898333074918    0.61279040946926
H         5.34511888587127    0.17601887590476    0.05654524278426
H         5.07538551760993    1.17992286092421    2.69297953570747
H         2.72142314687727   -1.29389708087860    3.84105701642334
H         4.40316635057320   -0.58947550989646    4.17574192184349
H         3.83685370908835   -3.23156011249032    2.75014264642278
H         5.29518674690182   -2.62852520824460    3.70270757731547
H         5.08386303269175   -2.16437175712695    0.77895294725199
H         6.01847311527066   -1.27699237897714    2.05179262434317
H         1.79938227896691   -0.18584941304959    1.48874214390313
H         2.35419404887853   -1.89180603612434    1.33112212514269
H         3.20535496990175   -2.65103982106480   -0.67434799345968
H         2.52522241448759   -1.88516878058191   -2.06373263001509
H         1.48366950960345   -2.52241158755345   -0.67764574945315
