37
 energy: -49.572085148529 gnorm: 0.155339426174 xtb: 6.4.1 (79825abcba525fcdf90b791dcacef51065a7a4e7)
C         2.26056437639749    0.46940770819544   -2.46397862902835
C         2.12358168774676    0.37501741884026   -0.93785914323805
C         2.58455732165556    1.72336820599707   -0.31482325824371
C         4.09086827372392    2.05584591852964   -0.36348289745314
C         4.91436680712929    0.96428290146090    0.34131705457756
C         4.33225472290321    0.82726332565195    1.74092218073037
O         3.29452554609809    1.80400271255754    2.08130676072508
C         2.27604880448349    1.89604288864501    1.14823495284448
O         1.19882795034837    2.30880790339202    1.57921807840837
C         3.74910419719393   -0.62900904038908    1.92827811564020
C         3.76122351784783   -1.10253419323987    3.51328025846028
C         4.96937785407390   -2.02143775586657    3.28532402417137
C         5.06261336983060   -1.59980367341311    1.85067450799707
C         2.44695922887016   -0.93819793013207    1.10511813813236
N         2.74847816952150   -0.78306793015086   -0.31076655658747
C         2.64092640539876   -1.95056041993945   -1.18194068361061
H         1.60584444850627    1.26669851172552   -2.82960015348388
H         2.04734010437573   -0.53342234070023   -2.85884667026054
H         3.27272475340614    0.83696352943393   -2.64987810829319
H         1.06013817591496    0.27150947066866   -0.70368227043773
H         2.00700647148984    2.43169385828325   -0.92444038704656
H         4.27671683020451    2.96641544645597    0.22561631882108
H         4.42986373926173    2.32379071806004   -1.36571597380883
H         5.94656571423645    1.34756360717981    0.33449169546800
H         4.86549114706829    0.00675285110059   -0.18437052472630
H         5.08820538443261    0.85413963878592    2.53406276184397
H         2.82072089793670   -1.60664676953965    3.75128061717544
H         3.77978000830086   -0.35115690661477    4.31500552016602
H         4.65495054807443   -3.06580515915428    3.33461559117024
H         5.80557407551287   -1.80112748535785    3.95714518589521
H         4.88594612792252   -2.41185574745214    1.11069939926357
H         5.90519642967529   -1.12375547590227    1.34968621773158
H         1.73541606227178   -0.17780866629297    1.45775689980379
H         2.14683919499554   -1.92479050262733    1.47370054710742
H         2.93050853164466   -2.87386031129170   -0.66199062216362
H         3.30113823723989   -1.84793211469747   -2.04887231979443
H         1.59907618301518   -2.07807139631697   -1.48265941803421
