37
 energy: -49.560024441201 gnorm: 0.149270543875 xtb: 6.4.1 (79825abcba525fcdf90b791dcacef51065a7a4e7)
C         1.03530485994656    0.80792904880830   -1.48522503755032
C         2.11473797074624    0.33080375531400   -0.50344599993916
C         2.98691635785261    1.57075696643195   -0.15625297316340
C         4.47979143015664    1.41238411548435   -0.51419698263975
C         5.28802967379316    1.37963069133240    0.79426805407708
C         4.55911908811404    0.64613811211685    1.91104971999748
O         3.50107092254943    1.58592095662846    2.29066214532412
C         2.75593074491280    2.08884004177200    1.23793817072350
O         1.99652917427804    3.02541991603317    1.48824512664939
C         3.95277372621438   -0.77160228463219    1.56716987315934
C         2.70718427442573   -1.13871525745602    2.59203068106224
C         3.75478084709386   -1.69851421701780    3.56421957597212
C         4.78496212716967   -1.83841032184628    2.48540401796921
C         3.74614352622874   -1.47403607869560    0.17696763332213
N         3.03377300874291   -0.74270726438811   -0.86100867958440
C         2.54353340420704   -1.73329205131445   -1.81597326299817
H         0.52439396405163    1.66510267310029   -1.03552141959303
H         0.29594046944518    0.02810592669253   -1.71385062590088
H         1.59972141726592    1.16607193390919   -2.34968564986519
H         1.55373952042717    0.04595500114863    0.39132029483050
H         2.54643654840310    2.35702278939392   -0.78449405296688
H         4.75081840641299    2.27271261554133   -1.14435067667664
H         4.59594545531105    0.51636160132104   -1.12643498612817
H         5.47031477289789    2.43636499085414    1.04420808765989
H         6.33683622281883    1.13125377645168    0.61011114747498
H         5.15282014930333    0.41558616227762    2.80302535841746
H         2.06361804915298   -1.92697784059411    2.19230147081466
H         2.03562520909394   -0.31984548912772    2.88552051053113
H         3.42788299574837   -2.52879962563743    4.19331527345680
H         4.14464860390748   -1.07355298172904    4.37448557988268
H         4.84376371843236   -2.84714422927815    2.01935539466313
H         5.83252846292222   -1.60192867799152    2.67044067871418
H         3.27013655624181   -2.44103757579543    0.39414280187916
H         4.72643522339794   -1.58942481639981   -0.29737775264747
H         1.78897801336131   -2.41022046490295   -1.39276805806092
H         3.46715031367901   -2.27258128510080   -2.04852782587726
H         2.23252824720799   -1.18447888334330   -2.70716493183852
