37
 energy: -49.585480900816 gnorm: 0.144769074238 xtb: 6.4.1 (79825abcba525fcdf90b791dcacef51065a7a4e7)
C         2.58359971498931    0.60020852600744   -2.36723572741336
C         2.12145733083440    0.50235841645421   -0.90656319797518
C         2.62076966208101    1.81923235045905   -0.24682664814977
C         4.13565578270151    2.08183351097887   -0.38114913168872
C         4.92127354095401    0.91459860441069    0.24075924531675
C         4.44016530982973    0.75780220544198    1.67619405434871
O         3.36501167151048    1.65530954781915    2.10664560982650
C         2.31902485421631    1.87458037663007    1.22674724953318
O         1.23392491817737    2.28398065615592    1.64084350400103
C         3.86150545608535   -0.69983353743935    1.86684231240694
C         3.69321672481058   -1.05603415041541    3.47351737427871
C         4.95530660750417   -1.91467388521373    3.31273292174169
C         4.91602598194984   -1.94847725465004    1.81540137515836
C         2.48808896473682   -0.87481194678046    1.12395518111068
N         2.59464783728769   -0.74653235798850   -0.32238432871785
C         2.28669362388250   -1.89910584498357   -1.16517077514306
H         2.35059449094593    1.55005695727766   -2.85866876209239
H         2.01062427821253   -0.17453231090404   -2.89499443443470
H         3.63290669445842    0.34861752829622   -2.53980846750603
H         1.02853192275790    0.50466134776324   -0.86213866055017
H         2.08630484395168    2.63762815032599   -0.74832333081556
H         4.28194678230262    3.01215440270943    0.18789956080363
H         4.59095134759438    2.23466608407564   -1.36121628525463
H         5.97846560461956    1.22058453233917    0.27396795452301
H         4.65876319417875    0.05511551339058   -0.38211890448563
H         5.23199682979458    0.86761708350555    2.42599352256542
H         2.76936986986630   -1.62580042089263    3.60463649096259
H         3.75969733939162   -0.16265272568502    4.11001209134792
H         4.90058719803058   -2.90924656409873    3.75975466111958
H         5.85135544874382   -1.40246867827896    3.67858358965823
H         4.45670299969323   -2.80155443332860    1.26814936357136
H         5.81612656517447   -1.78074408601488    1.22443447269010
H         1.70314270350221   -0.20774843988260    1.50830558528700
H         2.05523085887494   -1.86282826098442    1.31302538524601
H         2.44167024254113   -2.74013951572679   -0.47572666971556
H         3.03543155526784   -1.99360316621627   -1.95791566220933
H         1.24962879911354   -1.95858035568090   -1.50147720776855
