37
 energy: -49.583550734261 gnorm: 0.139772320093 xtb: 6.4.1 (79825abcba525fcdf90b791dcacef51065a7a4e7)
C         1.75822846417800    0.58497800098313   -2.31712701237814
C         2.01270629730651    0.46402398985202   -0.80804595268808
C         2.80643741879796    1.70983769996795   -0.32156755442642
C         4.30625198914009    1.44188801177527   -0.56782165726999
C         5.05508135705954    1.39887159223524    0.77523708019622
C         4.28821070530284    0.94518473163945    2.00917425956405
O         3.10869936092345    1.79712221871180    2.18156574044255
C         2.37763679445428    2.13754378308222    1.05637689603921
O         1.27930030534613    2.67584492663181    1.19925802967284
C         3.92475158645994   -0.58879929064879    1.90579906068046
C         3.72171452268675   -1.27035356270566    3.39940692900388
C         4.67531247972478   -2.39622223156785    2.97625756672319
C         5.16596237456858   -1.64538121228535    1.77617930228656
C         2.65514443705036   -0.94154323442845    1.04997138075570
N         2.73530242553850   -0.73037547112731   -0.38832321100014
C         2.66393528346233   -1.99036276584737   -1.12377491109966
H         1.10603135251799    1.45595859234275   -2.43562448315177
H         1.24230406238558   -0.35467025617684   -2.55782731957396
H         2.67508795003751    0.73431351369860   -2.89261994360422
H         1.03533768483924    0.46966818085251   -0.31694153342268
H         2.56065470913951    2.57517192986803   -0.95221071471990
H         4.76383724471707    2.20074117891572   -1.22010382663997
H         4.38873542852433    0.46056498826495   -1.03833742979334
H         5.27764955940508    2.43623312459269    1.06973618128707
H         6.00824365332863    0.88714821166203    0.61642629082894
H         4.84145678675996    1.17104310794809    2.92795740751334
H         2.70767189896163   -1.54351194507659    3.70341497251449
H         4.25229035118649   -0.58610915955163    4.07614503250549
H         4.05317001816607   -3.25576783813909    2.71912419495538
H         5.36855621893763   -2.68821960908097    3.77203081338179
H         5.27980520718474   -2.04032890981232    0.74212941716790
H         6.11271643530647   -1.18644854828531    2.06007175065756
H         1.94888354970934   -0.21474903138760    1.47635777848449
H         2.47705169115509   -1.99956555638472    1.26942906587448
H         3.47462797989591   -2.61655647491698   -0.72710457399746
H         2.72690679171054   -1.80259452056769   -2.20023223487430
H         1.73424597843290   -2.55746061422509   -1.04490466727599
