37
 energy: -49.560009163477 gnorm: 0.146908027274 xtb: 6.4.1 (79825abcba525fcdf90b791dcacef51065a7a4e7)
C         0.72616085849344    0.46391476296945   -0.84984138234121
C         2.14680793960416    0.37959828252897   -0.27419648165897
C         3.02854350505465    1.65278374328633   -0.41654565269937
C         4.53476700203085    1.40362152913680   -0.64257851670964
C         5.26559095195995    1.36458628988396    0.71048291157685
C         4.38779817314969    0.73003218746740    1.77975567972743
O         3.26923166192755    1.64692323624912    2.01402706537572
C         2.84454348268957    2.35425288490726    0.90240031962730
O         2.11399562397495    3.31249256576866    1.15657103247622
C         4.04635803003376   -0.80809451754487    1.66364894532577
C         2.81079254047279   -1.05633254281569    2.73526478756455
C         3.60904364027409   -2.22703668014240    3.32537639404486
C         4.86297518938638   -1.89042334718386    2.57769027762631
C         3.93601482392557   -1.40020746087478    0.21244316946552
N         2.88067107905624   -0.83299380260901   -0.61473676798746
C         2.69786072385487   -1.55517172991487   -1.87115621662986
H         0.31359203553037    1.40588605782346   -0.47502548570145
H         0.01133722575755   -0.27944438248381   -0.47103033184468
H         0.68066209226352    0.42649795052332   -1.94101247795606
H         2.00013365928162    0.33154808707228    0.80868977391896
H         2.66673697429121    2.38064285640505   -1.15562644046556
H         4.95229735962458    2.25844789822824   -1.19543900268770
H         4.77347541519790    0.45934082560440   -1.13505768885789
H         5.67541697423411    2.30902495921967    1.10094865034331
H         6.19289367101755    0.78933818975050    0.64120560531511
H         4.85449812414308    0.78491535269918    2.76992471294051
H         1.77003057096732   -1.09527586974897    2.40267379796982
H         2.98576912409684   -0.23946909052637    3.44926259253606
H         3.15540505225897   -3.15984474292572    2.98467328033050
H         3.58837172124121   -2.16286317677779    4.41833515048543
H         5.31245423298823   -2.68600436218495    1.94269226522384
H         5.63711726488010   -1.40775460728987    3.17375427718386
H         3.77000210985044   -2.48561429434112    0.15612828162432
H         4.87500755016510   -1.14006668900289   -0.28746617946958
H         2.19205819304553   -2.51297963575524   -1.68824538670735
H         3.64514787965085   -1.69502663506375   -2.40131688420872
H         2.03679143138934   -1.00722216265705   -2.54560513577230
