37
 energy: -49.574256387095 gnorm: 0.132669516041 xtb: 6.4.1 (79825abcba525fcdf90b791dcacef51065a7a4e7)
C         0.88671973924887    0.46829086569038   -1.14988225024945
C         2.10337427801289    0.31511572827928   -0.22630032247658
C         2.93475918708771    1.62920415019775   -0.25262217919891
C         4.43528920472005    1.49572683396701   -0.58799560047945
C         5.27413237650673    1.09932648846269    0.63903802025080
C         4.42861854313482    0.61665421397400    1.80893423293956
O         3.37429637365403    1.59132095552783    2.10081230485681
C         2.76580805700269    2.30422975910696    1.08204232646402
O         2.12104574627689    3.34457164099725    1.21804420124742
C         3.89508543261872   -0.86013287774039    1.63475557321739
C         2.70632549478350   -1.19417647118601    2.73560496185787
C         3.73971641867460   -1.85840840498269    3.65586787901190
C         4.80837840863832   -1.80574225810196    2.60711851806315
C         3.82205568236236   -1.48950497901942    0.19693466371318
N         2.79483412404231   -0.89698549860328   -0.64772203187582
C         2.84398721781284   -1.29723084898773   -2.05162304256187
H         0.10942709080836    1.11704793641266   -0.73402132645794
H         0.39152668516410   -0.48739167787732   -1.37012797251253
H         1.23555428794974    0.93819149034574   -2.07272155678150
H         1.74912258782253    0.18798491710457    0.80073828081458
H         2.44038886059222    2.28068220882507   -0.98617352685558
H         4.79073801358768    2.50957263843865   -0.82566609415837
H         4.71269980746783    0.75704517558875   -1.34203554760597
H         5.66742776103580    2.01641664204627    1.10449441858753
H         6.13522381855489    0.45654447993602    0.43666987843180
H         4.99422464757246    0.62693789390451    2.74767790769573
H         1.93960423098172   -1.83988652945080    2.29912374627030
H         2.18721973679504   -0.29707572077581    3.10086516067629
H         3.48841264629067   -2.85145783764062    4.03362004563089
H         3.93575000702600   -1.20780726066652    4.51458400951598
H         5.07901397496634   -2.78791152732977    2.15956633674383
H         5.79441689625006   -1.36596540629881    2.75504344307696
H         3.65184013810496   -2.57166246362461    0.29075061048251
H         4.77191720208741   -1.45224565151269   -0.34681596092461
H         2.10981866251350   -0.85922856684026   -2.74143394520523
H         2.65913442144671   -2.37537667888580   -2.01402376365512
H         3.85756724135809   -1.23768817934980   -2.45318609771200
