37
 energy: -49.571665777345 gnorm: 0.157233244197 xtb: 6.4.1 (79825abcba525fcdf90b791dcacef51065a7a4e7)
C         2.27275970972167    0.49800102131207   -2.49050745920200
C         2.08625077325091    0.45340780438988   -0.96737243522648
C         2.57226464069281    1.75681157044797   -0.27192207721059
C         4.08673060960803    2.03076360275987   -0.38692183024577
C         4.99870537215841    1.03906065667202    0.35552673714540
C         4.41330090537614    0.79070244712998    1.73832935663925
O         3.33228653047015    1.69742792234534    2.13332318045495
C         2.31957841768023    1.87799311781576    1.20692816737547
O         1.38389470960921    2.56045390500056    1.62558010175412
C         3.83192071760392   -0.66317877194882    1.94838256359356
C         3.60933656841943   -1.18509003238795    3.50230328396274
C         4.80713505720993   -2.12036192683700    3.28659523300701
C         4.94806382920983   -1.85119560278720    1.81949742924817
C         2.55712840243624   -0.86197501946662    1.05163502063025
N         2.78019614570123   -0.68399019022167   -0.37604512368616
C         2.57745998285128   -1.91463190783465   -1.13628814020599
H         1.90418214209413    1.47345887200236   -2.82313707706124
H         1.61738040180887   -0.18894727271811   -3.04334871977851
H         3.34210105037348    0.42183635332811   -2.70224446295990
H         1.01474573197927    0.48508408370596   -0.74979865589760
H         1.88425212963070    2.47882979489105   -0.73262991059379
H         4.26818313393104    3.07547275761907   -0.09303038694794
H         4.38630962431979    2.00911159713257   -1.43619161168123
H         5.94812905539106    1.58648689580954    0.46184903919345
H         5.16266667481766    0.07132773456693   -0.12635469687513
H         5.18629668159242    1.09332632014438    2.45397731783854
H         2.62972398527815   -1.63858102430065    3.67557742756418
H         3.70667011389797   -0.36153925001875    4.22338985601293
H         4.52986577782969   -3.15104625329718    3.51639738083089
H         5.68221537164821   -1.78415706599943    3.85255030564230
H         4.42589006814011   -2.65365448479660    1.25240189685602
H         5.94144114070221   -1.52676062575990    1.51046537479410
H         1.73076236237426   -0.25253080705423    1.44474632385646
H         2.21317871217049   -1.90000618005163    1.11062515117824
H         3.09452617065824   -2.63480225975374   -0.48768518986070
H         3.28621664363938   -2.02401799702915   -1.96313840881687
H         1.60375072116684   -2.33807382913922   -1.39070883544995
