37
 energy: -49.579765787847 gnorm: 0.152352841728 xtb: 6.4.1 (79825abcba525fcdf90b791dcacef51065a7a4e7)
C         2.19932606812088    0.54889651000011   -2.39996193982669
C         2.05042718801334    0.46077140275295   -0.87458409834574
C         2.62881908974123    1.75858912734912   -0.24224397996698
C         4.11707373552778    2.08313544892086   -0.49053742166610
C         4.99624245766960    1.07515451098657    0.26935690201643
C         4.49604669677265    0.80731290030620    1.68165586965410
O         3.47110926370131    1.74222517536367    2.15304275840278
C         2.44998967699338    1.94503326474774    1.24058843214033
O         1.37142386118704    2.33192694480662    1.69173721127465
C         3.89489497392356   -0.63693467592522    1.90224927954585
C         3.54944474621999   -1.10841864524687    3.44981889628444
C         4.66440397126876   -2.16023931796973    3.36904822755294
C         5.03082627738171   -1.81177109752504    1.95873195695070
C         2.64234222514988   -0.91394463112994    0.99497386257499
N         2.81419808343471   -0.70036602775367   -0.43490661680980
C         2.44060291106671   -1.90552609187796   -1.17081851549626
H         1.91669753564677    1.56130830375443   -2.70517232936159
H         1.57237699522884   -0.17545343763835   -2.93783318543066
H         3.20722359603949    0.27054525670464   -2.71743268763529
H         0.98186554523911    0.35665661823686   -0.66529741083544
H         1.91110075565710    2.44817671279347   -0.70729516831245
H         4.30523017579920    3.09492002017593   -0.10117440494130
H         4.51395575776464    1.94285667615879   -1.49750812518400
H         6.08660686703530    1.21361291058739    0.33508343071692
H         4.88420946621425    0.14258534355154   -0.29043181656203
H         5.31168119655705    1.06367435349263    2.36742176301536
H         2.50120721072415   -1.41867735041781    3.46583263838798
H         3.73848540403038   -0.24089024655569    4.09737867991473
H         4.27463974172887   -3.17204664316806    3.49682632672743
H         5.44223674923858   -1.95173778715680    4.11107766744399
H         4.95121268045245   -2.57338648162604    1.15138648308402
H         5.99324274562696   -1.33077828164643    1.78564870332029
H         1.81013397865250   -0.35712160805752    1.44908524432196
H         2.31287296246433   -1.91712050019289    1.28545295778207
H         2.48331208210315   -2.83836199847472   -0.59230173904363
H         3.07484051379835   -2.06361251353221   -2.04873311265362
H         1.42127393937522   -1.89813591120587   -1.56204290357038
