37
 energy: -49.578640648888 gnorm: 0.139710804372 xtb: 6.4.1 (79825abcba525fcdf90b791dcacef51065a7a4e7)
C         1.96119894472951    0.42487295831864   -2.38352935376779
C         2.00918529003543    0.37261008609094   -0.85001040774002
C         2.59968596704844    1.68418959463258   -0.25857975295329
C         4.09180201612718    1.97973473858258   -0.51958668660548
C         5.00504804608690    1.14570774372032    0.39517189685253
C         4.42505373681377    0.83717625257778    1.76810242751612
O         3.39282867392530    1.81626817598015    2.11832199643462
C         2.36688103420734    1.96736051737066    1.20126594518486
O         1.32799786155801    2.52672350262044    1.55391447190504
C         3.81441472580478   -0.61200364850855    1.91940855575821
C         3.65978923186055   -1.05463788382275    3.50584185370783
C         4.65272844138308   -2.19285458842806    3.23285987041574
C         4.97896186677774   -1.75691498711877    1.83707485392702
C         2.51283087109625   -0.96574312760410    1.11348086338801
N         2.72219483356665   -0.78095940288304   -0.31541036364712
C         2.88990341505907   -1.91142810843872   -1.22506126736576
H         1.32210351516799   -0.32367286653621   -2.86232584655047
H         2.96390649678246    0.09913244487604   -2.69259916863198
H         1.76276378141820    1.42031152530179   -2.78831332404312
H         0.95177394269869    0.35329020123007   -0.57077434687404
H         2.02353025093740    2.47322144582453   -0.76097063014077
H         4.28418621699309    3.05495571759474   -0.38691192509723
H         4.27775500317157    1.71942890408520   -1.56306444983970
H         5.89731750797395    1.77082301457042    0.55476942090996
H         5.22152550194215    0.23985803164782   -0.17769271440434
H         5.08860376016204    0.99542280308037    2.62595737204070
H         2.65748103595914   -1.28410541464481    3.87738157197706
H         4.18338330266266   -0.36777769555342    4.18536219590880
H         4.35277617839127   -3.21391799389872    3.47669510837166
H         5.50568025132372   -2.09786733012318    3.91297386227847
H         4.83479207065264   -2.49684609058484    1.01858840297403
H         5.94887949519754   -1.30694232603203    1.62650002192526
H         1.65847423418588   -0.31157800423243    1.33927351744774
H         2.11352669907468   -1.94188068534491    1.40844113834091
H         2.04089044865108   -2.31913130259715   -1.79043162281412
H         3.31663415763689   -2.72818796258011   -0.63447943204316
H         3.67678303623150   -1.69806069187834   -1.95131018718385
