37
 energy: -49.574849196551 gnorm: 0.137665177195 xtb: 6.4.1 (79825abcba525fcdf90b791dcacef51065a7a4e7)
C         0.93575870146341    0.57000951503495   -1.28669308826770
C         2.22423673939671    0.39017554601012   -0.47170931594210
C         2.96194265280173    1.74254924494025   -0.25817366189599
C         4.46225684617339    1.67037000326909   -0.61275699900003
C         5.26100679051001    0.88335302419170    0.44033625553950
C         4.46025406447430    0.56749309396808    1.69554575218175
O         3.50138534684397    1.58989620158978    2.12219076338245
C         2.74980059715301    2.22825622273791    1.15059099677825
O         1.97327742534043    3.11726156979323    1.50160015928058
C         3.83488009032404   -0.88330069975238    1.69636788980335
C         2.73180782878417   -1.01781930977926    2.92182332940408
C         3.78739789444240   -1.75856209077805    3.75429822322424
C         4.73539399529870   -1.90335027111256    2.60319997828212
C         3.51652538968749   -1.54061339312206    0.30519504484413
N         3.18225400564610   -0.65739785872633   -0.80291207861254
C         2.94748266641594   -1.37945024341015   -2.05073947784694
H         0.26702492732279    1.09839115800041   -0.59994867503461
H         0.42143435135884   -0.35079670740741   -1.59432895259901
H         1.10488012518198    0.99430078242064   -2.27941630420646
H         1.84986967379154    0.18420709113708    0.53521228301339
H         2.53379679598383    2.54423158531065   -0.87536067566623
H         4.77554972925379    2.71762618202089   -0.73852064855926
H         4.65564651115037    1.10717204771705   -1.52741102059827
H         6.06030399426996    1.52626075392912    0.84055981490690
H         5.75421586577803   -0.04638279964389    0.14379594966093
H         5.08566562476209    0.49792343694872    2.59291755581566
H         1.92423289152602   -1.71161612721804    2.67325235877386
H         2.35266700642484   -0.04191902763595    3.25580901346529
H         3.38218723917687   -2.71145980615730    4.10040186503456
H         4.12967289727775   -1.17576733142661    4.61586801177359
H         4.86640721519033   -2.91494370951044    2.15854585308244
H         5.75353092943096   -1.53457331870321    2.72550330673404
H         2.60155743210990   -2.12813317313276    0.46796403515981
H         4.37929911022958   -2.09122236451592   -0.08434467002692
H         3.92423544373029   -1.66772571760033   -2.46249161857545
H         2.32719113132619   -0.79557195745848   -2.73798561356412
H         2.38436796047237   -2.30499462380080   -1.91504822320336
