37
 energy: -49.571347805650 gnorm: 0.140903524932 xtb: 6.4.1 (79825abcba525fcdf90b791dcacef51065a7a4e7)
C         1.90368127575472    0.59919385077904   -2.37061481970997
C         1.97644504696655    0.40809391984719   -0.84913503877357
C         2.83626893714957    1.58913674270565   -0.31569071652424
C         4.35817878128913    1.36497358166823   -0.43988074577634
C         5.05660644835188    1.62219808338685    0.90638704140140
C         4.27815515855028    0.99795395496960    2.05567211243582
O         3.07001000818617    1.80106261405666    2.26101351069347
C         2.39655957579839    1.99111699897504    1.06655417396491
O         1.35544764788527    2.64197737743345    1.16138514671681
C         3.92035301002410   -0.52337351311777    1.82450929564880
C         3.74447981996513   -1.24768274637057    3.30134695689861
C         4.83714698278988   -2.24028871117413    2.88087511097450
C         5.13629441651259   -1.58583506335096    1.56676376707350
C         2.57679423669436   -0.84844256325925    1.07754778847127
N         2.59579808858908   -0.82454011123602   -0.37805378646862
C         2.45752041521322   -2.11993394021362   -1.03864786114387
H         1.86694000463823    1.68289225160411   -2.51980519423926
H         0.98841560575661    0.09547857901163   -2.71063415216571
H         2.84448746745411    0.24139019003286   -2.79603787594418
H         1.03151145226240    0.54552499071551   -0.31558278519900
H         2.51822719421061    2.51968718891786   -0.80543410385210
H         4.87519250423062    1.89634326422628   -1.25293516652152
H         4.36068443052653    0.29361333130941   -0.64812201395712
H         5.16753082237987    2.70674674967805    1.06077366514917
H         6.06174844853765    1.21141754353081    1.03502980195107
H         4.87763633541746    1.13056133363275    2.96357810818220
H         2.77522246954435   -1.73274016200156    3.44479842628295
H         3.94278438358019   -0.61295351811342    4.17625819238337
H         4.50906745113623   -3.27556117057349    2.76874921591022
H         5.65153059135704   -2.29974822268504    3.61049714529677
H         5.16334779114056   -2.17412546862289    0.62263160737856
H         6.06166913378583   -1.01599126541087    1.48603562618973
H         1.75279963967819   -0.21399142285139    1.43440103062120
H         2.26719268274421   -1.84457134673850    1.41096081427299
H         3.00802558678019   -2.93066593024308   -0.54231505935806
H         2.97486860160603   -2.11992546171417   -2.00318585358679
H         1.47354322276624   -2.58184071133963   -1.14147633500203
