37
 energy: -49.577245399337 gnorm: 0.146157548965 xtb: 6.4.1 (79825abcba525fcdf90b791dcacef51065a7a4e7)
C         2.12215897122512    0.42453610291712   -2.38460953829058
C         2.14506191411123    0.35084100008451   -0.85139103829601
C         2.75472163704603    1.68286669287285   -0.32914141118632
C         4.28946919868761    1.63357390032992   -0.48406709685340
C         5.06720442280733    1.53240223668560    0.83929784934008
C         4.23497013022053    0.94845814275462    1.97195783271761
O         2.99081856118043    1.69158837356034    2.18784582175287
C         2.31086261957249    2.09083646844188    1.05001890174983
O         1.38375246359992    2.89512352743026    1.15059346427575
C         3.80426808598380   -0.57152147924392    1.97927780107827
C         3.84221723301486   -1.37882116996417    3.42268756852175
C         4.80639964387904   -2.41263965040852    2.82472743173276
C         5.00871763010653   -1.60302196121038    1.58043083376711
C         2.52221201939312   -0.90934934582680    1.13608377394316
N         2.84097249513646   -0.79548320803849   -0.27994402524343
C         2.42250774818219   -2.01092579206157   -0.97358445820748
H         1.28591004121323    1.06251719921401   -2.68739289478036
H         1.95784175203971   -0.49461520940475   -2.96358637758183
H         3.07208202514804    0.89907249778228   -2.64265203544481
H         1.12918851195426    0.46050294109222   -0.46095500182968
H         2.29107984515886    2.44586135617789   -0.96929661468631
H         4.66623097869562    2.53664448237441   -0.98728523862323
H         4.51730457540876    0.72014765186389   -1.03626905546747
H         5.26835578232342    2.55169588771371    1.20393991790949
H         6.07516079904107    1.11058834306205    0.79810311635620
H         4.67070079559149    0.97235434212828    2.97735499562107
H         2.87054871104899   -1.74406641486971    3.76587121674004
H         4.24657021333323   -0.78734784721815    4.25595435181698
H         4.45556412207524   -3.43414640238469    2.66524121944651
H         5.70905750399096   -2.34745624148427    3.44122100065209
H         4.90963993840297   -2.13144492710104    0.60618455322035
H         5.91083378714543   -0.99317635225584    1.62323430546286
H         1.70115267730223   -0.21542637843557    1.36667447577796
H         2.18723814681220   -1.93098933099238    1.34425239172341
H         2.82284839019533   -2.84102305607646   -0.37579313049165
H         2.86673109757717   -2.11558963593286   -1.96841800837289
H         1.34693880312463   -2.18873295325992   -1.03423717568157
