37
 energy: -49.575414105195 gnorm: 0.152312145829 xtb: 6.4.1 (79825abcba525fcdf90b791dcacef51065a7a4e7)
C         1.87277627803188    0.55568229425408   -2.38921541429487
C         2.06758519798019    0.47522109233119   -0.86859385299333
C         2.60492511659704    1.80589706481989   -0.26918635541387
C         4.12971104025395    1.92068268552405   -0.47831311543924
C         4.99223802257439    1.00832482248358    0.41053610057048
C         4.31918529718059    0.77726358373297    1.75594832067100
O         3.20041071641959    1.61788939735260    2.19006234259743
C         2.30392388026506    1.97149954906378    1.19625126625047
O         1.28630891437434    2.52742541920118    1.61089855927655
C         3.79918506979410   -0.70811100162637    1.89436088553325
C         3.52439972619589   -1.24906882374428    3.43334184069323
C         4.96978443247655   -1.76564165262529    3.43386245420662
C         4.88914893416037   -1.92591228190791    1.94641543374107
C         2.58623821662169   -1.10484783242429    0.97777404737000
N         2.83277919704000   -0.66922235701014   -0.38939691031720
C         3.05157896644631   -1.74967573808188   -1.34767536097387
H         1.31340216750575    1.47152549648200   -2.60448672816696
H         1.26934156835489   -0.32532035048441   -2.64758406150778
H         2.84543474465864    0.44307639660361   -2.87437512119827
H         1.07926957867044    0.52481767883964   -0.40250671282522
H         2.11671863751331    2.64303153587245   -0.78666442717605
H         4.45985574960812    2.96882046922317   -0.42240175388300
H         4.26473221247814    1.66070197436512   -1.52967546811848
H         6.01545309705759    1.39646840049763    0.53202982690310
H         5.00332354805497    0.06101779579865   -0.13543694040402
H         5.07421278742445    1.03119481064373    2.50874850759938
H         2.73180464104823   -2.00135131078808    3.39894811904407
H         3.35054442471081   -0.50935401242117    4.22723849446442
H         5.22547436825972   -2.66169286923552    4.00281969056953
H         5.67945109815164   -1.03354429605948    3.83325085621565
H         4.32686122220693   -2.82596823486042    1.61184876468759
H         5.80097174852692   -1.85557013125635    1.35380384524747
H         1.72444111211534   -0.58917216113497    1.42523795881508
H         2.51789192859848   -2.18872220646729    1.11861101672555
H         3.48491861099516   -2.63980286877531   -0.87167220755130
H         3.77312326043272   -1.44072472623965   -2.11050286079623
H         2.14472847109099   -1.97352744479586   -1.91305601058339
