37
 energy: -49.582291725969 gnorm: 0.126691326863 xtb: 6.4.1 (79825abcba525fcdf90b791dcacef51065a7a4e7)
C         2.23963096225887    0.54829198002225   -2.46259601597139
C         2.11891990242271    0.40845794435183   -0.93859150249344
C         2.65442247332321    1.73358785669611   -0.32541142180295
C         4.15733844270301    2.07826227225184   -0.39117603158720
C         5.04412281102512    1.09784157212863    0.39545687427679
C         4.41843604288663    0.86812096911784    1.76376525287511
O         3.32910925326791    1.80561188319718    2.04879375335249
C         2.29075859522163    1.80823872189483    1.13325551212347
O         1.10993681463346    1.96993752993451    1.44315807271558
C         3.81719286432064   -0.57861702632022    1.96711649492443
C         3.70381117857051   -1.11233597345957    3.52881216506105
C         4.98313642604462   -1.94225391643445    3.35403283056272
C         5.04666217459347   -1.65354735384265    1.88525769678622
C         2.59826108041212   -0.90842561295623    1.03212816454519
N         2.79425327902769   -0.76740163259591   -0.40363216842406
C         2.34678118018399   -1.98783412931647   -1.06986313450914
H         1.44087495299888    1.20024402873868   -2.82996132869185
H         2.29356682799684   -0.32075555449328   -3.13259658700513
H         3.19284831376044    1.04679809051730   -2.65493130919965
H         1.06793143954746    0.30664752518873   -0.65306971248150
H         2.01767771207961    2.41285775206738   -0.90856815520153
H         4.34057887210600    3.09463667659945   -0.01154405182765
H         4.52268200849918    2.21625681356945   -1.41032521507537
H         6.08756668287718    1.44531103658177    0.44907688070630
H         5.00617761793057    0.14014527466992   -0.13083013395622
H         5.09968906404335    1.08181481252657    2.59532099984067
H         2.82566985190452   -1.74950007103305    3.66375121905268
H         3.74418869898899   -0.33359360226862    4.30315416279600
H         4.86468564756272   -3.00108389359786    3.59245672293267
H         5.83796509237484   -1.51687393587287    3.89015243640601
H         4.59429398746259   -2.51687180464254    1.34838065330324
H         6.01585729561347   -1.39423391696629    1.45984646917891
H         1.71308374391515   -0.35790172566069    1.38173382841505
H         2.31721916222423   -1.95349909156091    1.19983860195708
H         1.28126576172361   -2.10704714224114   -0.83079470058098
H         2.87329337443826   -2.87357036032120   -0.70075754987204
H         2.46322064203965   -1.88743428995661   -2.15083696285377
