37
 energy: -49.578962598220 gnorm: 0.143469531601 xtb: 6.4.1 (79825abcba525fcdf90b791dcacef51065a7a4e7)
C         2.33424798389747    0.47963007560182   -2.38872190384581
C         2.17548241104012    0.41120857435458   -0.86332802879224
C         2.54536636507915    1.78067273049382   -0.22577342120207
C         4.04063199284766    2.09789626474841   -0.43892077225776
C         4.90389008716289    1.05510798997228    0.29168220011931
C         4.43183341742701    0.98965364225954    1.73715844776777
O         3.21342387697629    1.71776664081426    2.10060442987385
C         2.16929708642696    1.94990674745440    1.22179872254140
O         1.05570201064190    2.23579992587109    1.66304384664577
C         3.99021661027300   -0.51587840408691    1.92220936203092
C         3.68187003139942   -1.06535184909216    3.45178645065662
C         4.63790620790389   -2.23440579144369    3.17739181600709
C         5.20907514556571   -1.60570103727648    1.94321849863831
C         2.74440537716627   -0.96708881559794    1.07773604549846
N         2.85115338292440   -0.77921262080003   -0.36206111539327
C         2.57016296490279   -1.96666173306505   -1.16490571377864
H         2.04970353512601    1.49240680114660   -2.69092659218711
H         1.61338009787064   -0.18174626456455   -2.88870620072448
H         3.36227820939000    0.29379637753222   -2.70925929166098
H         1.11246912420558    0.23925896105131   -0.67123199484671
H         1.89221488477754    2.47060934908084   -0.77741086451874
H         4.29472972693816    3.07549603269683   -0.00251789998699
H         4.27639417144212    2.16327407530594   -1.50255859532784
H         5.97303840734838    1.30637613422405    0.21312358146453
H         4.65597254077439    0.08080070978165   -0.13827393562619
H         5.14372091882106    1.24236994549295    2.53126572661358
H         2.65589413450053   -1.29163036420934    3.75426013439531
H         4.11970210108440   -0.30822415467834    4.11717078128047
H         4.09167459696723   -3.13193804504135    2.88063544231506
H         5.40674455561585   -2.57367527574789    3.87945180198167
H         5.31767787754464   -2.26033568581600    1.04998730407529
H         6.16220067262686   -1.09273582913842    2.06961388443827
H         1.84309496556055   -0.40921629552930    1.36972475340914
H         2.53242629704317   -2.04113595396798    1.10562069067502
H         2.85359941776714   -2.75961630656193   -0.45951547370315
H         3.13997765226532   -1.96282848404212   -2.09939981402757
H         1.53907792395397   -2.23737830923864   -1.40095414594521
