37
 energy: -49.572040865651 gnorm: 0.131458916169 xtb: 6.4.1 (79825abcba525fcdf90b791dcacef51065a7a4e7)
C         0.84592097226604    0.59573734933426   -1.18519543321549
C         2.13857158628046    0.38957817946244   -0.38315602678444
C         2.96543424070039    1.70360684221069   -0.29178378490921
C         4.46386138295471    1.52853189997984   -0.61727831597291
C         5.29302050523361    1.05986235252776    0.59071447201155
C         4.43380255875105    0.66503369476786    1.78334941624016
O         3.34413448995842    1.59246889126711    2.09839025234100
C         2.72114203116712    2.28550825556771    1.07468810769613
O         1.84949342346799    3.12400676058060    1.30636704905352
C         3.84818878428930   -0.79909634779726    1.68703963808893
C         2.82397505340197   -1.08747067327636    2.95370105805825
C         3.91960828116825   -1.91192234360790    3.64352130367216
C         4.85332750524715   -1.81981344761454    2.47545805413031
C         3.43915864612346   -1.56053838173992    0.37491468773086
N         2.98295792807473   -0.74363949244201   -0.74055179841488
C         2.99797187231014   -1.35904660937658   -2.06516458757741
H         0.20319556091713    1.40679226732098   -0.82867914864889
H         0.23201005713648   -0.31339378309479   -1.24558936611224
H         1.12835973390072    0.98670964837247   -2.16575319339160
H         1.85579342445734    0.24981569712679    0.66420625251304
H         2.56153419181139    2.46005539718368   -0.97849593484059
H         4.87963313996286    2.43679402367860   -1.07869805119599
H         4.57475067853811    0.73038262688400   -1.35337938087846
H         6.02102897457094    1.83553229656105    0.87483600860534
H         5.98803135894716    0.26220062772058    0.31449767412999
H         4.98809268325251    0.61143270829739    2.72735422639449
H         1.98409232246864   -1.74290590457613    2.70809878240030
H         2.44751665333273   -0.19756938644437    3.47718011525114
H         3.66053047519787   -2.95938526552938    3.80994719860930
H         4.26391845115402   -1.49098438163979    4.59397706144529
H         5.10417890678868   -2.73989974732719    1.90211887729636
H         5.80954043160678   -1.39183649961375    2.77554125469880
H         2.67461448825790   -2.30896621998188    0.62822787392280
H         4.35492200984776   -2.03218852172645    0.00314390883551
H         2.30839438899024   -2.15893412425251   -2.36740851542035
H         3.90303705408375   -1.96970417013301   -2.14221677114402
H         3.00644928092892   -0.57712557952413   -2.82718185171036
