37
 energy: -49.583058225269 gnorm: 0.141332850509 xtb: 6.4.1 (79825abcba525fcdf90b791dcacef51065a7a4e7)
C         2.56838494751528    0.62446558294769   -2.43386590746953
C         2.25066274322102    0.38206281973556   -0.95163516188506
C         2.54621567647640    1.73092508729828   -0.23613453561821
C         3.98054899538933    2.28797076646546   -0.35559126511365
C         4.93416157696943    1.28150178100755    0.31077637565793
C         4.42605156443135    0.82799151476540    1.67190677096957
O         3.31829951646164    1.67752305165720    2.11681675512178
C         2.24936800510027    1.74064822934113    1.23944003567865
O         1.15893535802849    2.13279660353870    1.65621633391624
C         3.86511279212097   -0.62662971751167    1.92748589570480
C         3.69822117665504   -0.98871705436932    3.53299038237204
C         4.45856633464278   -2.28070718267070    3.20341268781527
C         4.97485590737733   -1.82629822517395    1.87238114378758
C         2.63935452799179   -0.92222086249241    0.98998167903285
N         2.95859457873627   -0.77741784886601   -0.42310937880876
C         2.55760412286656   -2.01650818831963   -1.08448087126715
H         2.20926371309381    1.63593834861262   -2.64825969451752
H         1.94694832520174   -0.00339146136222   -3.08706229828148
H         3.62344635801976    0.49612045643956   -2.68782943179401
H         1.17476606935471    0.18574679868673   -0.93236938777685
H         1.84871620108804    2.50950233584213   -0.57412153959020
H         4.12045615642885    3.28450329620601    0.08945179379392
H         4.35916898477589    2.30373156112777   -1.37910579000841
H         5.93992248543215    1.72963292691017    0.30782305181380
H         4.99199346775970    0.37096179027559   -0.29186153184622
H         5.13563963370501    0.95386615025613    2.49767674792455
H         2.69891535359799   -1.19257118727618    3.92688147148502
H         4.32234791695154   -0.27047699805934    4.08278361576233
H         3.81537938520905   -3.16281900629573    3.18974736243982
H         5.19648814830382   -2.42577594856943    3.99935920689198
H         4.88081264008947   -2.47401202339673    0.97247796270673
H         5.99204406341586   -1.43848755507592    1.82249629632446
H         1.77935185865516   -0.28850476684262    1.25005650344693
H         2.25776522859042   -1.91949646753682    1.23312958067652
H         2.86055216399262   -2.89374458317198   -0.49680123163794
H         3.05142426700765   -2.07262948734497   -2.05966021970442
H         1.47853777644557   -2.06345156263523   -1.24433966388842
