37
 energy: -49.573458733814 gnorm: 0.133971114147 xtb: 6.4.1 (79825abcba525fcdf90b791dcacef51065a7a4e7)
C         0.95318515133284    0.50524070335538   -1.31209364287214
C         2.11416017878612    0.33986081951514   -0.32138635853802
C         2.92364182263532    1.66482515012812   -0.23232986418179
C         4.41832587278299    1.54722778557363   -0.59835211642779
C         5.32857646337842    1.14532459227222    0.57481465456904
C         4.48978880707426    0.69242062126987    1.76133753258205
O         3.50145613024138    1.69336357908299    2.17130703050115
C         2.75320834892943    2.24552047019608    1.14581335901565
O         1.95127778631555    3.14316517848365    1.40594317062727
C         3.97818576990998   -0.80086216999879    1.69603297192622
C         2.69553725313306   -1.15583636758045    2.67858615914166
C         3.64432125044672   -2.04077050886778    3.49876003875549
C         4.88496826668205   -1.66357342964448    2.74829036063178
C         3.86789797628316   -1.45945309712624    0.27375799447467
N         2.95147154456663   -0.80708478360189   -0.65051823240834
C         2.71261645735660   -1.45994639072819   -1.93514672455057
H         0.14327964596986    1.10438615399322   -0.88420615224202
H         0.55807696059475   -0.46948133371330   -1.62967816326623
H         1.15679253842363    1.06516900760568   -2.22814431799247
H         1.68749610152881    0.19739951815360    0.67567297919696
H         2.52142137203876    2.38836734569927   -0.95456850071495
H         4.75581938629183    2.51775483236898   -0.99191253918085
H         4.50096748179846    0.84119429448899   -1.42652513451612
H         5.98185433208445    2.01122900169751    0.76408383762918
H         5.92590463367265    0.29309226820318    0.23940569735166
H         5.13032191404162    0.76572484048947    2.64767806041974
H         1.93128442518739   -1.77710010763608    2.20396230635759
H         2.41693567914344   -0.23800129340264    3.21490276072593
H         3.38388858885178   -3.10103533392162    3.50204487044652
H         3.65243608150032   -1.90353766698804    4.58513276743269
H         5.37951845797726   -2.54248224293311    2.27803251732559
H         5.56141133460196   -1.05824427845809    3.35124869074754
H         3.43339488835329   -2.43708886435305    0.52728305728594
H         4.83260420560601   -1.51991027238702   -0.24100089688198
H         2.45722078055477   -0.70195813393277   -2.68808457077517
H         1.93903611334969   -2.23217360770858   -1.99190277924456
H         3.61248355584269   -1.97418546661371   -2.27857074183054
