37
 energy: -49.571100748191 gnorm: 0.136549856736 xtb: 6.4.1 (79825abcba525fcdf90b791dcacef51065a7a4e7)
C         0.89129078091952    0.19457735976431   -1.02881100895281
C         2.25111833117394    0.35609710561045   -0.33491268924471
C         2.93353054717867    1.75202121035781   -0.26834252329384
C         4.44805193015754    1.67576134859199   -0.55520710423126
C         5.30261725794783    1.08828256115678    0.58101002735014
C         4.46001853931486    0.53187452697192    1.71985189331801
O         3.45760052216127    1.50724485924419    2.15639987267868
C         2.74487610814293    2.16303146330086    1.16728051003540
O         1.95496228873015    3.04877123299805    1.49595574838693
C         3.83693734035464   -0.91328981661346    1.58141150747813
C         2.66446242915632   -0.97805551283859    2.74662079964233
C         3.73774078030392   -1.50362038064818    3.70986524107100
C         4.63191649531883   -1.92968434148776    2.58576262630306
C         3.60222745211001   -1.55153751817411    0.16496429376209
N         3.19554994249658   -0.61515853008096   -0.87307050067650
C         3.07327199600501   -1.25231314946601   -2.18174637282872
H         0.17738808156186    0.93155634403522   -0.64774038388411
H         0.38095498064405   -0.76894243957504   -0.89375386903688
H         1.04820267895910    0.33304618855494   -2.10134518749186
H         2.00625041372286    0.09740663287498    0.69929413365493
H         2.33628699814039    2.44854900865484   -0.87255476150666
H         4.73552061649083    2.73139846699656   -0.67228169662506
H         4.68259367832239    1.15337711450083   -1.48434022757538
H         5.94878378486618    1.82227011765926    1.08708941506475
H         5.91566095904570    0.33150775881221    0.08394930520738
H         5.15351577128433    0.49164583969317    2.56761302885389
H         1.91256675251236   -1.71067668561045    2.44127191478565
H         2.15490703224743   -0.02091946634101    2.92528094816673
H         3.40048570654689   -2.32842170367375    4.34070535931729
H         4.15140496831545   -0.64542904534289    4.24976706782690
H         4.38866149281504   -2.97457516789702    2.29040994392022
H         5.71724619242695   -1.83975461664244    2.62487083338815
H         2.90045858173965   -2.38238835873173    0.32635488532310
H         4.53738771329489   -2.02714026832466   -0.14898989664529
H         2.37175999317442   -0.68738657156814   -2.81057658347656
H         2.80618188008673   -2.30368613376366   -2.03593687343784
H         4.10148628810505   -1.19206935406921   -2.54408426624179
