37
 energy: -49.573839082906 gnorm: 0.138963434861 xtb: 6.4.1 (79825abcba525fcdf90b791dcacef51065a7a4e7)
C         1.93973851059054    0.68486172583290   -2.38579875342417
C         2.10069026071731    0.44481970399330   -0.87808895479715
C         2.88305396737839    1.65068690219300   -0.28436052598077
C         4.39261610115588    1.38267822728942   -0.46120891454388
C         5.18105428704679    1.49632191387200    0.85478991965072
C         4.30428141430932    0.89667859566476    1.94484519646154
O         3.14509474525988    1.75101218069466    2.21533306858847
C         2.36763552677791    1.97517175403339    1.09207936122204
O         1.24802435823816    2.46109645049456    1.25601284926349
C         3.81808474426736   -0.60443524911585    1.86632190829757
C         3.64844374258915   -1.30363438416067    3.35593501138131
C         5.00778236758848   -1.96185050100759    3.08219288800467
C         5.08665024330010   -1.60837930725504    1.62839600714934
C         2.51539009028383   -0.87381784178665    1.03014535655477
N         2.71715371765428   -0.79013379912062   -0.40929789245979
C         2.30851796242910   -2.03624969086432   -1.05254159292885
H         1.37439446326142    1.61073042245770   -2.53127443899867
H         1.35243867951870   -0.03127813237579   -2.97679458617544
H         2.90180868398184    0.70681926379091   -2.90354711971364
H         1.12066539613749    0.53412020168581   -0.40055205030181
H         2.58184787096988    2.51699290398014   -0.88910183545178
H         4.94060631835630    2.04615920895373   -1.14693052408246
H         4.36138130313314    0.35183009429602   -0.81836433635390
H         5.49375290797106    2.53809565671165    1.02599822374038
H         6.11608411874044    0.94857691803333    0.70886296842083
H         5.02486691791153    0.97193264058087    2.76724963242710
H         2.84715861454447   -2.04007486550457    3.25145346008594
H         3.50680894374098   -0.78947266865230    4.31679549247665
H         5.07108652179413   -3.01879927406508    3.34836827660972
H         5.67530951794070   -1.49994652099284    3.81714637486049
H         4.70332668068414   -2.43859429154297    0.99435408014044
H         6.00808772910090   -1.14483093164231    1.27678085425466
H         1.65561059014108   -0.30462372585907    1.41176932676089
H         2.26359335762982   -1.92429287110793    1.21011909434431
H         2.85944019784285   -2.81114857663467   -0.50235528546368
H         2.55302278825898   -2.05035967644034   -2.11931288629938
H         1.23896768760467   -2.25467178601157   -1.03025510185034
