37
 energy: -49.575705784715 gnorm: 0.145185049678 xtb: 6.4.1 (79825abcba525fcdf90b791dcacef51065a7a4e7)
C         2.19246292646177    0.58570061660232   -2.39220489449359
C         2.14372636062058    0.46322633612587   -0.86271501791044
C         2.94688171659845    1.67105734034133   -0.30163760611196
C         4.45192123805331    1.35687117698732   -0.43589456318141
C         5.03040471823462    1.52537338864043    0.97950871874942
C         4.16296086925347    0.98952029548495    2.10952018232812
O         2.98513419883338    1.85170225857790    2.23652365992818
C         2.32917170194389    2.01166631802810    1.02800641116412
O         1.20977434969864    2.52302673606843    1.07257384999209
C         3.78690257440293   -0.53909737296541    1.97608835450089
C         3.81054502101761   -1.45782233463972    3.35158468724863
C         5.03632812093723   -2.25781671746558    2.88957876275994
C         5.11988333431924   -1.42670610133698    1.64580986993089
C         2.56828958687744   -0.93433188229887    1.06639410528350
N         2.68831598392863   -0.79916425831446   -0.37826219112390
C         2.09048269022644   -1.98071746554536   -0.99476671844902
H         2.01327887922237    1.59700189993135   -2.77058657999986
H         1.44149816863708   -0.00860157469803   -2.93063809016531
H         3.09825082327018    0.19365122797828   -2.86121458168596
H         1.07257514330304    0.55048185618739   -0.65903303851043
H         2.64413245521073    2.50290238228232   -0.95225267779477
H         4.93579050718977    2.01043672880650   -1.17713474763472
H         4.52724241793074    0.33100152615716   -0.80072555462314
H         5.17843885228797    2.60746236375438    1.11934647159846
H         6.08203880548121    1.22619893349051    0.96684280515608
H         4.73739724647762    0.91597234847755    3.04004113205216
H         2.85736909210964   -1.99319106780796    3.36402640948316
H         3.90021647612227   -0.92704962443421    4.30966344812937
H         4.73930456779326   -3.29680927758158    2.73379388466686
H         5.84224121048510   -2.04990615029953    3.60118377634640
H         5.09526437150335   -1.90364164921717    0.64075792060635
H         6.05714764528005   -0.87078225454496    1.63935672405621
H         1.69547768249747   -0.32727201581304    1.34660347103548
H         2.45849279592506   -1.99881981512286    1.29898824189160
H         2.65024772654313   -2.84336409585483   -0.60851231770975
H         2.11707009944950   -1.97471143515983   -2.08895122372236
H         1.05220112828987   -2.03448225700494   -0.66126493324015
