37
 energy: -49.576423782736 gnorm: 0.140393376451 xtb: 6.4.1 (79825abcba525fcdf90b791dcacef51065a7a4e7)
C         2.17293923635920    0.41080942713048   -2.43704374456228
C         2.06284734998193    0.51793920651454   -0.90958917356670
C         2.81869234677438    1.71471073501366   -0.26526132839995
C         4.32682298728496    1.45805086183640   -0.46909837031104
C         5.09853470519654    1.61017033721098    0.85291648970413
C         4.29338608159536    0.94610399480567    1.96074087487219
O         3.09287615377948    1.72978899263399    2.26302722471939
C         2.30462572941062    1.89782794556291    1.13749915683791
O         1.20312746378073    2.43542533612406    1.25673337089421
C         3.91791029161734   -0.58581087670046    1.87046004514526
C         3.78454401922340   -1.25005657297442    3.37963060925108
C         4.86761755067392   -2.25169028157537    2.95575994381117
C         5.21661569999611   -1.55965618905124    1.67358347372353
C         2.60256173942595   -0.90114803672834    1.07096507093001
N         2.64382372420974   -0.70578702924978   -0.37119994959497
C         2.15647818018450   -1.89361924460329   -1.06769072719564
H         2.16269189205356    1.43517222574775   -2.82251197924788
H         1.31005892447940   -0.21885920982249   -2.69396483628503
H         3.08061042577377   -0.09842614561324   -2.77011531126068
H         1.02894647881522    0.73305190168315   -0.62456229052163
H         2.41626109185274    2.62887948619287   -0.72271934959691
H         4.74370770056178    2.15007896833823   -1.21610483669172
H         4.32118106196858    0.42657582936864   -0.82576475853471
H         5.18080501943675    2.70429413764027    0.94516589674997
H         6.04262211101828    1.07825940832719    0.70673244296182
H         4.96832690898064    1.10397115105756    2.80973353388774
H         2.84469903939635   -1.72470862824833    3.67410584212475
H         4.13496342615435   -0.56775727830807    4.16661820320854
H         4.49908633039254   -3.25934501963736    2.75373487043227
H         5.70122166790841   -2.33361088034513    3.66109504191287
H         5.17988563586208   -2.20907347538828    0.77074842797942
H         6.07160341722813   -0.89889313835606    1.53235475291562
H         1.77826033853075   -0.44930644036386    1.64123338749619
H         2.45043666116965   -1.95459527080327    1.32864084505268
H         2.47979916071761   -2.75900773418394   -0.47333824729992
H         2.61981029690017   -2.01976771877933   -2.05125191277220
H         1.07141005855609   -1.86981293471570   -1.18686758067313
