37
 energy: -49.577521798210 gnorm: 0.144142890333 xtb: 6.4.1 (79825abcba525fcdf90b791dcacef51065a7a4e7)
C         1.58140741235528    0.50920886031091   -2.24997896980622
C         1.95645975150514    0.58600100362406   -0.76332058824973
C         2.77631125825133    1.83570576383304   -0.33343272940704
C         4.30687415427699    1.85905581988657   -0.53019098482500
C         5.03029609308825    0.84773930542626    0.37551435932627
C         4.41384375376738    0.67800370087697    1.75670935041144
O         3.43188542748589    1.71804699535245    2.07424842884796
C         2.46897829341583    2.02411892613596    1.12792974389302
O         1.41197972280061    2.54463690560188    1.48617716922653
C         3.79006908898524   -0.75545691000638    1.98472628018003
C         3.40570286470649   -1.17304220016884    3.53858914347435
C         4.62680496960794   -2.10159433365104    3.48676937478465
C         5.03429496675016   -1.81264866446718    2.07427169288598
C         2.62157303821828   -1.02147517633334    0.96854579223759
N         2.70292942643763   -0.62053276633593   -0.42871391481037
C         3.00973495276478   -1.64697044986183   -1.42161191345297
H         0.87360670697490    1.28781151683906   -2.55131924935627
H         1.04730983249309   -0.43845733272049   -2.40399852232021
H         2.38401949991336    0.56906340043805   -2.98913780217302
H         0.96222765130689    0.56596000537176   -0.30772683760431
H         2.39386047729993    2.66742142875736   -0.94080715271946
H         4.67828132240350    2.87571851482370   -0.33228166665423
H         4.58608872879594    1.74874395530701   -1.57950217538214
H         6.07116095847088    1.20617349318002    0.39810874384444
H         5.18913246089751   -0.14412091983606   -0.05643972849739
H         5.13444457872790    0.70924305629499    2.58194522368200
H         2.40767285790421   -1.61812880044484    3.57254276874581
H         3.46307372563907   -0.27242702432267    4.16570671570576
H         4.46167231852708   -3.16552099102359    3.66784598302453
H         5.40538312870806   -1.79692876725055    4.19394640664649
H         4.91966975136551   -2.59126244834139    1.28761759387320
H         5.91317672375793   -1.19514504276517    1.89038722631805
H         1.77584621417231   -0.43399973207990    1.35384869581242
H         2.37481867544577   -2.08569180406811    1.04499941049966
H         3.85919481872923   -2.24214641206843   -1.05984947668084
H         3.34931028090964   -1.21352208358346   -2.36754731588529
H         2.24339293631143   -2.36833947956055   -1.71228234980070
