37
 energy: -49.578753857036 gnorm: 0.151236507038 xtb: 6.4.1 (79825abcba525fcdf90b791dcacef51065a7a4e7)
C         2.24714213586569    0.41118007023461   -2.36104932065608
C         2.09374398858265    0.34345629019140   -0.83507520780416
C         2.88404833846233    1.57505524319259   -0.30847747081748
C         4.42339402606232    1.47658247613957   -0.35946585098561
C         5.09297648368378    1.67603442364616    1.01103801644313
C         4.20083525012862    1.10339972495859    2.10314461655807
O         2.97682303989962    1.90276939264577    2.20094825990633
C         2.28376175421549    1.99557175298138    1.00619178610355
O         1.21213814822564    2.60013845843434    1.05765175104641
C         3.88618127110404   -0.44024852240292    1.98465892445345
C         3.92775517226568   -1.39626086663095    3.33407239506384
C         4.87557141483137   -2.37297617687154    2.62438494731411
C         5.05943858970897   -1.45032559471501    1.45836772655888
C         2.57493401417419   -0.85617102645945    1.22544176455530
N         2.67587554916746   -0.84658696770094   -0.22694502980359
C         2.12733040993532   -2.02504963062734   -0.89318405718279
H         2.11997535196948    1.44493903311458   -2.69747305718659
H         1.51335617090655   -0.23656425271925   -2.86008731550707
H         3.22608605936824    0.04901589279762   -2.68451559596654
H         1.02902576714961    0.44101523903740   -0.60415927062026
H         2.58118170546072    2.36815766051120   -1.00574615753075
H         4.83719688268334    2.17837327763376   -1.09904092353600
H         4.65271446274019    0.46243279741235   -0.69127309331025
H         5.25729711348287    2.75729876911078    1.13851900027129
H         6.02188900885222    1.10453274480974    0.93288814561073
H         4.66859711635821    1.27424522398406    3.07949821405725
H         2.95545668146226   -1.80643070415520    3.61993106261617
H         4.43519451518036   -0.84720613238488    4.13950381717052
H         4.26534786242923   -3.25638209485964    2.42634792690633
H         5.78764710055733   -2.72567472739137    3.11715881486539
H         4.87897535731047   -1.69633730028368    0.38826758980181
H         5.95546899831354   -0.83029196775666    1.44270968125080
H         1.67494185551209   -0.31638716228326    1.55329399949933
H         2.30605578307686   -1.83867078298366    1.62754704241956
H         2.71134409949459   -2.94802291692694   -0.77597959076001
H         2.26059981645289   -2.01395831148377   -1.97950764738636
H         1.10320014647836   -2.30430677761354   -0.63761539948152
