37
 energy: -49.569623036256 gnorm: 0.138339386530 xtb: 6.4.1 (79825abcba525fcdf90b791dcacef51065a7a4e7)
C         1.01850056473319    0.45568862847884   -1.33565448051270
C         2.17447432929890    0.23823447403142   -0.34916938615114
C         2.75115629988334    1.66312021283284   -0.11282076262876
C         4.20203250245076    1.87277136920491   -0.59540393684848
C         5.18550954837678    0.98420237331472    0.18537812827891
C         4.67631424274612    0.49441492274697    1.53346999562330
O         3.80763033695434    1.53565814395035    2.08841515094901
C         2.77161640595633    2.06437556261398    1.33773393486841
O         1.99812404997929    2.87872854433585    1.84277351410432
C         3.94127694365961   -0.90049014327660    1.63274696138358
C         2.72641800477796   -0.87816328763698    2.75534393873595
C         3.65591553529752   -1.48560864075365    3.81507465147551
C         4.56845155945219   -1.94800159433402    2.72047054472279
C         3.60215296130669   -1.59645593729558    0.26548761578638
N         3.26466890476188   -0.63223238612252   -0.77185799362220
C         3.06514619761030   -1.34786705448956   -2.02947803813357
H         0.08169945098378    0.80495998944802   -0.89020739991256
H         0.92058675872473   -0.58424127291356   -1.67626006461382
H         1.26765380576842    1.21228846798874   -2.08372123836139
H         1.78755622156227   -0.05142425940125    0.63208339056706
H         2.09065549755711    2.39911640408177   -0.59133049477878
H         4.52934194189583    2.92251798595893   -0.55521689446513
H         4.16106567153743    1.65898999364975   -1.66489106816456
H         6.14331384953565    1.46408609325786    0.43975539110271
H         5.41365192322087    0.10272675924542   -0.42005712444417
H         5.43733212395178    0.44700894580402    2.32078197753949
H         1.99734828073819   -1.61622791506325    2.41032687102640
H         2.17655556206415    0.05681875561669    2.93179627826094
H         3.24187564252129   -2.22564220837900    4.50276553017619
H         3.99664465049441   -0.66010645463237    4.44875771053268
H         4.48765497381342   -2.98060511431360    2.31377051056683
H         5.61386901897093   -1.85970777337518    3.01519734401756
H         2.81097324902503   -2.35369028459839    0.36280358129401
H         4.46431376681200   -2.10998786882704   -0.17297974465875
H         2.20784377375650   -2.02895560841627   -2.11801898057643
H         4.01327900151112   -1.85172570504066   -2.24197120436700
H         2.88767579545826   -0.60973027889326   -2.81420796156120
