37
 energy: -49.579596054576 gnorm: 0.152347250838 xtb: 6.4.1 (79825abcba525fcdf90b791dcacef51065a7a4e7)
C         2.49648599793032    0.47699291416730   -2.35733522112790
C         2.24435155206860    0.37882472881903   -0.84620792633878
C         2.60162912379793    1.79407828943689   -0.30942847956856
C         4.08695695081578    2.20772918757009   -0.37707486168396
C         4.87189560632150    1.10391276008573    0.35221466961642
C         4.32287944170893    0.97431873890653    1.76583058989603
O         3.11253027166518    1.73256789909739    2.09275016657991
C         2.16337510798273    1.98664928034487    1.11759050497504
O         1.03425681429755    2.33551230717370    1.46387452448529
C         3.89365101002905   -0.52952422363774    1.98969495930222
C         3.85474226311754   -1.18566266456928    3.50777703112713
C         4.80701605687801   -2.29494077231895    3.04016457893271
C         5.09903035843843   -1.60631684937950    1.74200737042831
C         2.63195493071250   -0.92245687027152    1.13969580037343
N         2.90116955571969   -0.79551482578143   -0.28547705523054
C         2.46373621184673   -2.03488170472281   -0.92279351527524
H         1.82790845930083    1.12174016838221   -2.93639908449822
H         2.20403617423760   -0.47559652458426   -2.82004455797497
H         3.48875383143146    0.66947797635257   -2.77264060776614
H         1.15300495353296    0.32416286678452   -0.79681681657065
H         2.01413956325873    2.51608439921228   -0.89294064023514
H         4.28639564947250    3.19528060193111    0.06528340142337
H         4.32760999423233    2.16170548672415   -1.44063088657768
H         5.95627395776994    1.28657522408656    0.40827957126571
H         4.61292985159094    0.20543310685073   -0.21459315277992
H         5.01013900463939    1.30080889330183    2.55471218934337
H         2.88018932819925   -1.51864167606729    3.87477891796239
H         4.28964101810384   -0.43914095201708    4.18692647954731
H         4.25421688107517   -3.21940578570292    2.86190921907737
H         5.55599396620796   -2.53210959291551    3.80298005611917
H         4.96411395031829   -2.28125209553842    0.86767161268786
H         6.07366811996057   -1.12411280970846    1.67046814027909
H         1.89591978053051   -0.18357994705745    1.48776585200472
H         2.20406492741599   -1.92228458456396    1.26832167608204
H         2.82921868192773   -2.89918210942593   -0.35174540914333
H         2.83096275493696   -2.13391958718213   -1.94910675174821
H         1.38075345065372   -2.15810963553835   -0.98687087050749
