37
 energy: -49.558850464987 gnorm: 0.147613379239 xtb: 6.4.1 (79825abcba525fcdf90b791dcacef51065a7a4e7)
C         1.09464472535571    0.76857740038572   -1.74750477110328
C         2.04731306468233    0.40579898268431   -0.59966798148060
C         2.86052667987501    1.65350231568633   -0.15173711728754
C         4.35149816291314    1.70723180659796   -0.54670420011913
C         5.29518793918131    1.08153756946558    0.49462135111786
C         4.53815752111326    0.66117817585826    1.74631069261216
O         3.50713552807586    1.59754884214630    2.20124685897495
C         2.61338701964236    2.09192483161891    1.26679769959369
O         1.72861288688816    2.83645208187657    1.69033054346297
C         3.92751835483433   -0.79539871725026    1.70890173439343
C         2.92155774777550   -1.17706233383049    2.96547677422845
C         4.10304919058467   -1.72457474769787    3.77806081637940
C         4.94336221708908   -1.77185901399134    2.53857479047256
C         3.39119664260561   -1.47431081503187    0.39733438708223
N         2.93227181744027   -0.73953010988062   -0.77279111903847
C         2.76670888191963   -1.58041612702888   -1.95560557253390
H         0.51981805151501    1.67278125468818   -1.52389889683723
H         0.43147066648120   -0.10732110810475   -1.75495051766807
H         1.64308917544968    0.85897195167044   -2.68833527019981
H         1.42683363281642    0.04271704342157    0.22473578609468
H         2.47039062615923    2.47828924017825   -0.76365512154063
H         4.71053390829892    2.74193173594193   -0.65255224936931
H         4.58727754827713    1.27015616633672   -1.51858713188690
H         6.17896513487232    1.68633802966669    0.75062821419263
H         5.82633988076046    0.20239432064546    0.11967494708761
H         5.20877118958499    0.69499207839709    2.61256101808904
H         2.30339897838084   -2.03862328513427    2.69918503084156
H         2.25050989172288   -0.35308913035192    3.24554550491087
H         3.93740125910432   -2.62262803071040    4.37644073156577
H         4.38321320797413   -0.90653823665600    4.44994533017227
H         4.93496128853700   -2.79816003040322    2.10864609005291
H         5.98919600726447   -1.47412981871199    2.61031295349471
H         2.47876054102176   -1.98159893683089    0.74223830717188
H         4.09519659264735   -2.16718435890276   -0.07552947315857
H         1.81663800824599   -2.12368490590757   -2.05001382005483
H         3.49636744886921   -2.39524813670275   -1.99597705508004
H         2.93883206036543   -0.93697176792002   -2.82076200459520
