37
 energy: -49.578073612534 gnorm: 0.152155564271 xtb: 6.4.1 (79825abcba525fcdf90b791dcacef51065a7a4e7)
C         2.51669018894626    0.54513742006811   -2.40614465258368
C         2.22443169875824    0.44632646540720   -0.90230428017074
C         2.58856948931551    1.79381238464784   -0.21644169558206
C         4.05998780247194    2.12543737582780   -0.54329777914085
C         4.99913326800293    1.19757797968133    0.24631310951741
C         4.44678506363725    0.82975944939047    1.61603728766682
O         3.30448421656072    1.59872876696947    2.11663523637113
C         2.28693588340484    1.95708008828176    1.24912789177598
O         1.18300462146002    2.21868682506134    1.72811000814857
C         3.88782959607892   -0.62206165898369    1.89113768972585
C         3.73591555168975   -0.98088762549496    3.49885992692449
C         4.53587053500976   -2.28005906817624    3.33090072990550
C         4.94026760490916   -1.87226618372154    1.94711773702987
C         2.61969204857278   -0.98522715291248    1.03749277980517
N         2.87266451655856   -0.74882836747305   -0.37666033120148
C         2.44473974270997   -1.91051981103095   -1.15184021561530
H         2.15857149528045    1.50460086353556   -2.79239692149640
H         1.97757381028458   -0.16876684561403   -3.04391239972201
H         3.58154429765253    0.40258735718650   -2.60586880081265
H         1.13609380567244    0.37281594168612   -0.82117692524408
H         2.00522887761111    2.64808981047631   -0.58637017168429
H         4.08697956980963    3.17699629173154   -0.22048245564575
H         4.21300976588351    2.06547122063251   -1.62226572305368
H         5.94207480310122    1.72327140754032    0.46286090819283
H         5.08856986945060    0.26260527001418   -0.31353257149204
H         5.11651670076433    1.01897053379472    2.46274527891277
H         2.69717360199849   -1.03304259425968    3.83592647558586
H         4.33248971996289   -0.26085865433863    4.07621000631003
H         3.96179799448853   -3.20598460590980    3.40231557009505
H         5.38741933218098   -2.32409334337181    4.01794515353194
H         4.72224260916172   -2.62946323131556    1.16142009925318
H         5.94930839281454   -1.49752585172680    1.77693037310372
H         1.73883975009223   -0.40167339290029    1.34147279465072
H         2.35967789389273   -1.98481767883556    1.40150014164151
H         2.70095789476727   -2.82551400614480   -0.60063567050139
H         2.98243198538982   -1.92863512583503   -2.10501469491772
H         1.39173291841269   -1.86783938537681   -1.43731824472273
