37
 energy: -49.579704179186 gnorm: 0.144205307338 xtb: 6.4.1 (79825abcba525fcdf90b791dcacef51065a7a4e7)
C         1.77159486861021    0.51921338587624   -2.24842295713949
C         2.00659195978978    0.48595616126841   -0.73172100960378
C         2.71805003011582    1.82053401563444   -0.36915865620495
C         4.23407825365116    1.99196033389702   -0.60186723409030
C         4.98736546168787    1.03745951413516    0.34041146509043
C         4.32470562203608    0.77566333362513    1.68535309376028
O         3.19011100258381    1.62076975573013    2.06647444988372
C         2.37985767696903    2.12766366604002    1.06500684508457
O         1.40407717251865    2.78337275680624    1.43164586218632
C         3.84603041877018   -0.70925367598325    1.93392388837669
C         3.65881531132692   -1.09945785303397    3.53057536014107
C         4.51522398091504   -2.35071558686183    3.29203190906739
C         4.95416793267093   -1.91165651285192    1.92849139641908
C         2.58588725320620   -1.10703733934998    1.08387743955959
N         2.74814658957028   -0.69338213139384   -0.30258198036259
C         3.02995539859140   -1.80555919423396   -1.20657114751057
H         1.13029343394849    1.40245114800270   -2.32986889354002
H         1.25338686883042   -0.35841067218080   -2.65865453379753
H         2.75058961080929    0.58720595417752   -2.72912123243127
H         1.02179123479760    0.54014128694910   -0.25875557584414
H         2.28091205396852    2.61532459139879   -0.98895022304622
H         4.51983618478944    3.05435092851648   -0.58229581071087
H         4.53158165554023    1.77074949352283   -1.62838608909568
H         5.98163055479664    1.46092509198674    0.55135953519096
H         5.17513903382476    0.05035428396936   -0.09082442411960
H         4.97339789970746    1.12266302739220    2.49778477558671
H         2.62887592545645   -1.21985044903197    3.87705669383890
H         4.16348386902601   -0.37580105035776    4.18578986249941
H         3.89834717331540   -3.25039211883123    3.24683673338662
H         5.29799941144650   -2.50769435168736    4.04151486571286
H         4.97465897963704   -2.60353852866333    1.05723803142948
H         5.97196486481831   -1.52235279595524    1.93794547832368
H         1.74649787589620   -0.52321733973935    1.48812894859564
H         2.60602616581250   -2.20131960115675    1.12170187147516
H         3.82084179654403   -2.30990741763069   -0.63488929395785
H         3.48248372289400   -1.38543225859592   -2.11028247712766
H         2.15404644193127   -2.43075243926746   -1.39112355953009
