37
 energy: -49.581849424569 gnorm: 0.141606996403 xtb: 6.4.1 (79825abcba525fcdf90b791dcacef51065a7a4e7)
C         2.32829706572663    0.60834570885030   -2.43657127104168
C         2.08759975335580    0.51097825663427   -0.92352835317922
C         2.61543722727955    1.80243916590214   -0.23633229678944
C         4.13226377500446    1.92186808664027   -0.49489720628561
C         5.04500169131436    1.09166620805891    0.42383939045735
C         4.41274366708130    0.72181935266054    1.75800070489098
O         3.35606606393570    1.66341011796324    2.13695002582493
C         2.34510280256947    1.95300737217029    1.23668564735999
O         1.22285270841422    2.27110862600783    1.63151786372498
C         3.74782193166782   -0.70811815791337    1.85315191330992
C         3.64034336528053   -1.12251348842353    3.45106605376992
C         4.85082700660931   -2.05982618660541    3.34079837038366
C         4.96659428290015   -1.79810699963269    1.87015619825056
C         2.44656208553609   -0.93508493766991    1.00228146753980
N         2.78360591755621   -0.65128691748607   -0.38536712471902
C         2.54653907744994   -1.87077758753929   -1.15360686038535
H         1.85597604778489    1.56883273641298   -2.66545430376909
H         1.70949224686421   -0.13335751691776   -2.96003129025907
H         3.36324935111260    0.57157073829630   -2.78534898224687
H         1.00068550446468    0.39931642983166   -0.87240250302269
H         2.16721446096988    2.63887635654092   -0.78985955903390
H         4.39962890498362    2.98572699432548   -0.40867345022059
H         4.32379804883282    1.53228407577938   -1.49625748352912
H         6.01061420319635    1.58856294652689    0.60569473520848
H         5.22839163789019    0.13334578224983   -0.06970913147957
H         5.20679973386915    0.85159338204336    2.50223814817577
H         2.66279751015660   -1.55883116201138    3.67321425914696
H         3.67539713662046   -0.31684091026010    4.19761711960275
H         4.59998939679029   -3.03835573175346    3.75499383541528
H         5.65594681932766   -1.71656680566853    3.99887093048872
H         4.77434499051333   -2.67030166564026    1.20643960647164
H         5.91399700233142   -1.41810051208048    1.48860604825403
H         1.69076933897534   -0.22076816120080    1.35916866823448
H         2.13390778776305   -1.97909489845240    1.10989385950206
H         3.06103934390111   -2.70461999802630   -0.65693304472698
H         2.93481260855372   -1.82145466169383   -2.17575832273141
H         1.47300212413627   -2.06899389232914   -1.17287868669096
