37
 energy: -49.578564853280 gnorm: 0.145474828522 xtb: 6.4.1 (79825abcba525fcdf90b791dcacef51065a7a4e7)
C         1.65841533325782    0.71862737862581   -2.24816032997870
C         1.97144145681991    0.52595280331294   -0.75765517226333
C         2.68786804256416    1.82788356718862   -0.29892721572849
C         4.20018576576195    1.78946589972583   -0.60437938152150
C         5.08786010579478    0.94542489797586    0.32622882246889
C         4.44786216469506    0.68360389988964    1.68209595648368
O         3.43639734077476    1.66945178899621    2.07171903247515
C         2.44500200534533    2.02510574171693    1.17336788173682
O         1.41417646733258    2.52634450709603    1.62357291380719
C         3.84060918443270   -0.75798160947932    1.90338977180037
C         3.37994819038570   -1.14820864845749    3.44355827709120
C         4.67821451431185   -1.96143291008483    3.53924296118398
C         4.98113789559261   -1.91743273807139    2.07261798940513
C         2.63450659725288   -1.10729845705988    0.95889737554379
N         2.80766876325172   -0.61308769938944   -0.39958671790298
C         3.02408208427362   -1.71550645531204   -1.33306869599946
H         0.95288233580502    1.53079231168095   -2.44970738886750
H         1.24690932207752   -0.20778961662035   -2.67179675446665
H         2.53550559826387    1.02405443812164   -2.82396541855529
H         0.98878544602946    0.43427130358393   -0.28601286616143
H         2.24818026147630    2.65282537365684   -0.87604844910843
H         4.67646219750045    2.77597971104529   -0.70765415497315
H         4.40555065172070    1.45935866651624   -1.62420189004169
H         6.05432693422475    1.46695075497025    0.40583972826117
H         5.28073685746079   -0.06363692485844   -0.04819452284941
H         5.13334362445228    0.62678036863562    2.53540829975704
H         2.44511937239161   -1.68025310666906    3.24774556596336
H         3.07723752385739   -0.21486169822371    3.93843734598465
H         4.52314891152326   -2.94954491535332    3.97694924033936
H         5.40862613078904   -1.37782666133090    4.10933683848311
H         4.67291716984138   -2.83787257283923    1.52856511014264
H         5.95793575244398   -1.56113893533667    1.74630826878294
H         1.71983775950073   -0.70808964535542    1.42025714690117
H         2.44132771690045   -2.18510267093799    0.94129284846747
H         3.70379994689480   -2.44709691995492   -0.87541426105007
H         3.44059188043387   -1.34138075480237   -2.27356443829574
H         2.14213351574035   -2.32939041921671   -1.52660393100454
