37
 energy: -49.572365945344 gnorm: 0.146153718769 xtb: 6.4.1 (79825abcba525fcdf90b791dcacef51065a7a4e7)
C         2.21226188079893    0.55192009179474   -2.40180252806822
C         2.10131208271777    0.47951258733755   -0.87237068734855
C         2.66039821640664    1.77192412318288   -0.21220615540875
C         4.14871210597737    2.05767238238980   -0.50401356437152
C         4.96301935369257    1.01405616750165    0.27967739670728
C         4.42614806223244    0.79950379594008    1.68760489324376
O         3.45037796092115    1.81290052734514    2.09707174683920
C         2.36170149955433    1.94712867726874    1.25258632385901
O         1.28540253342490    2.33495579725266    1.70832400153195
C         3.81021089437398   -0.64531287440095    1.85796378209298
C         3.64437256430930   -1.02916909960308    3.45851268577363
C         4.58182493352490   -2.23077384970624    3.27599204337415
C         4.92962179033849   -1.83714685784882    1.87285893037700
C         2.46380410661957   -0.93950798877586    1.10337142832825
N         2.73615060210648   -0.70487480252503   -0.30747339078649
C         2.79492600346584   -1.90239719578596   -1.14176111990095
H         2.11287824484138    1.55693456491553   -2.82379625401247
H         1.48707318532522   -0.04629703166226   -2.97038945039096
H         3.16046616584190    0.10076867567690   -2.70428485086605
H         1.04410648851596    0.51424118235625   -0.59384769266768
H         2.11212983047965    2.56745386247236   -0.73513777296491
H         4.37476606921643    3.11543157038582   -0.30212366123880
H         4.11378680457102    1.93664783824895   -1.58813384123029
H         6.02669529131140    1.29648170340085    0.31452822961178
H         4.78088352901906    0.05382422285810   -0.21060947554773
H         5.12959167962503    0.95553656961644    2.51348416162661
H         2.57658516210255   -1.17382198345695    3.64351119407908
H         4.04284462898269   -0.20111160739537    4.06118703851452
H         4.14032474769391   -3.21564690168488    3.44061318099049
H         5.46913495951100   -2.12599290109645    3.90908467631268
H         4.72286816113389   -2.55832027590893    1.05105306531703
H         5.97344602293267   -1.53504125090595    1.79088007082707
H         1.68041694395820   -0.47052024505261    1.71590277013409
H         2.07799678152001   -1.95214356550297    1.26152268854950
H         3.32940349923802   -2.71303971778194   -0.62806756485890
H         3.38278736677582   -1.69869595794073   -2.04226515449682
H         1.84305827172334   -2.21446578807754   -1.57616151389603
