37
 energy: -49.577142994814 gnorm: 0.134361304944 xtb: 6.4.1 (79825abcba525fcdf90b791dcacef51065a7a4e7)
C         2.14154599624880    0.62840782522602   -2.38452074302627
C         2.07877029954171    0.44832522004614   -0.86125322865263
C         2.57975506928347    1.78291770642933   -0.23948218511882
C         4.07766449564747    1.99983754737633   -0.54130166132016
C         4.97336247411439    0.98277560192054    0.18651201103573
C         4.45996722679790    0.77069364102182    1.60354055142272
O         3.39613218389056    1.65393595112616    2.08820677368437
C         2.34576004834630    1.95322970034853    1.23760058929927
O         1.22657353948944    2.28580801406855    1.62918633171900
C         3.83864038629164   -0.64647823402415    1.92208848351479
C         3.67528164844418   -0.99649465699034    3.53063041601402
C         4.67657398519197   -2.14449510876678    3.34223369613044
C         5.03877720797589   -1.75692070385409    1.94106193467117
C         2.52614415690818   -0.97043731537018    1.12135396936111
N         2.67934795328802   -0.76066556545345   -0.31120766492441
C         2.82162633000503   -1.94055114264257   -1.16042925505628
H         2.04980270450281   -0.35484257475943   -2.85655011172283
H         3.01369554317490    1.13780224129873   -2.81687008587661
H         1.25967778764885    1.18485021348454   -2.71133085873003
H         1.00128522412791    0.41118393143430   -0.67656096298386
H         2.01830334573986    2.62068567432472   -0.67518856411609
H         4.35316276110142    3.02361897854550   -0.24687558158335
H         4.06197582279559    1.95216657512716   -1.63156072745034
H         5.97471160045719    1.44000738277715    0.21149780782774
H         5.05837687456460    0.00776289721080   -0.30105626839086
H         5.23081471901293    1.04971276351274    2.33100064255303
H         2.70853202277198   -1.36183981062023    3.88733324813333
H         3.96275459333163   -0.15226078409209    4.17273947173629
H         4.12190546547307   -3.07983114118370    3.43963391828304
H         5.55251883538449   -2.16392761530286    3.99908026010918
H         4.99102013919070   -2.50256270246624    1.11647700141271
H         5.92485325447444   -1.12263361730291    1.93074204315979
H         1.71167049140766   -0.29352424491877    1.41675359524214
H         2.17321778811738   -2.00054302722834    1.23803782081909
H         1.91135521834139   -2.08552063209503   -1.75799005173943
H         3.00209031612061   -2.83841657421724   -0.56105199264091
H         3.74367472837817   -1.87228269714729   -1.74121222211981
