37
 energy: -49.577464648694 gnorm: 0.128827313160 xtb: 6.4.1 (79825abcba525fcdf90b791dcacef51065a7a4e7)
C         1.80712247590643    0.48527845910160   -2.35150999087565
C         1.95067482261829    0.42739590184179   -0.82417349743652
C         2.60358679165886    1.71221984173258   -0.23966050163827
C         4.09572045853719    1.97499042649956   -0.53354919840492
C         5.00361973103776    1.10626872461370    0.35383127894283
C         4.42413150511006    0.89734451906440    1.74561696081101
O         3.38813034336502    1.87456724672863    2.08985617227877
C         2.33345387874110    2.02955565897913    1.20666571562700
O         1.20830470243762    2.37699986061753    1.56701001888527
C         3.91853352073560   -0.58856111077890    1.92548095624105
C         3.62399476202356   -1.07443915688793    3.47911352437223
C         4.62079824143183   -2.21268035844653    3.22070591052010
C         5.08965298410587   -1.72891259842458    1.88248642834245
C         2.67441051964250   -0.95406066598129    1.03815936431034
N         2.68172313369129   -0.76205235885223   -0.40502729618883
C         3.08064225779458   -1.94939943721095   -1.15643986093635
H         1.19112452841271    1.31535809336830   -2.71140473418557
H         1.34832019804119   -0.47559805441551   -2.62219478766949
H         2.72941584560667    0.49183043890663   -2.93756162873040
H         0.94794410385249    0.42228200882947   -0.38717265593132
H         1.99601509653967    2.42929422395144   -0.80850514170319
H         4.28589544508158    3.05641635031431   -0.46237432839464
H         4.37247256261327    1.68859963609734   -1.54970472963443
H         5.97328948703799    1.61753240795690    0.45744242788100
H         5.20413610850564    0.15123016744384   -0.13941772729302
H         5.10914694952821    1.02561960847519    2.59152182993642
H         2.56122368390724   -1.22781228594983    3.68481513264625
H         4.01627758369825   -0.40939653906019    4.26110333682644
H         4.04959018225470   -3.12437772546723    3.03489221952745
H         5.33395633479798   -2.43829963659192    4.02045955120439
H         5.00229468344202   -2.51930656113195    1.10412343773334
H         6.07518152654124   -1.26608138834670    1.92807286274678
H         1.82543246558512   -0.35101951645864    1.39088762623728
H         2.38086861066221   -1.97461416867674    1.30572918836533
H         3.11517406594940   -2.70040225858075   -0.35550860661707
H         4.02739824467965   -1.73619315976383   -1.66258101496564
H         2.39960554930375   -2.26045493839083   -1.95115751537555
