37
 energy: -49.582562662603 gnorm: 0.137531670257 xtb: 6.4.1 (79825abcba525fcdf90b791dcacef51065a7a4e7)
C         2.53900968576606    0.69509316782942   -2.40053243985661
C         2.10792392550434    0.49895219377495   -0.94025566143471
C         2.61310052297135    1.82058034877944   -0.29464143318234
C         4.11873182782364    2.14270293454072   -0.40043972370104
C         4.89430434772933    0.98720729657576    0.25509036798676
C         4.40122704133608    0.78487326453240    1.68073373566799
O         3.36301327321092    1.73742900183038    2.08262058177445
C         2.32029461853325    1.86538957037085    1.18109235620944
O         1.15112281986899    1.91881696939213    1.56411844881437
C         3.85066847375022   -0.67807619638499    1.90999350590039
C         3.70630041065569   -1.00913895546527    3.52435406564424
C         4.71706136707454   -2.14687114955302    3.32457307128322
C         4.90689119865372   -1.92513118197032    1.85505498239349
C         2.53587404683085   -0.90454948432532    1.08005553179479
N         2.77644363139414   -0.64481920892444   -0.33216785574411
C         2.55981423394174   -1.86218869031578   -1.10974981631485
H         2.05910406125695    1.61033115071767   -2.76114294640805
H         2.18849682158515   -0.13215888095360   -3.03286798961788
H         3.62657334916455    0.79240951134378   -2.44365243052630
H         1.03610911902831    0.42541877045960   -0.73465737811343
H         2.00794106768553    2.64496292784771   -0.69601240171693
H         4.18235902191929    3.14113680701842    0.05759500319543
H         4.38155805161576    2.27491158142245   -1.45145196368240
H         5.91626477908789    1.39698803060091    0.24722372791373
H         4.78770135929715    0.02833242334344   -0.25949181831313
H         5.13529551307372    0.90025624971399    2.48639243390392
H         2.71042249000807   -1.36799135080301    3.79779684604954
H         4.07971342738537   -0.17156774891158    4.12992219051898
H         4.28116320914436   -3.12629754968692    3.53124717141176
H         5.61161808820575   -2.04340123622301    3.94760329404787
H         4.56399359200387   -2.80356061674359    1.26430462098177
H         5.86436215191301   -1.52008001550743    1.52834367019519
H         1.70426746486755   -0.28513782531878    1.44556787794627
H         2.14540048114945   -1.92433344087192    1.16288661421242
H         2.95758625374638   -2.76571497540144   -0.62797576764108
H         3.05636538361258   -1.71803096336325   -2.07444572742254
H         1.51127100662942   -2.10309746560233   -1.29592917411674
