37
 energy: -49.582025644556 gnorm: 0.146000655696 xtb: 6.4.1 (79825abcba525fcdf90b791dcacef51065a7a4e7)
C         2.03919328354348    0.69984281655859   -2.40558965956005
C         1.99884165033390    0.54998572798051   -0.87829496765073
C         2.71703764699469    1.78080287357031   -0.25539387548537
C         4.24016220690461    1.90553662809007   -0.47083512548823
C         5.00821296334165    0.86483992092424    0.36190193670200
C         4.33480969574790    0.67574983174537    1.71367718190605
O         3.35798660707380    1.68180613832069    2.13844851654125
C         2.38417487278203    1.97582439818468    1.19949524855706
O         1.33182352673273    2.39412997074727    1.68333744862996
C         3.76274178301023   -0.78773911909089    1.87748913804053
C         3.47739242322967   -1.17668565813534    3.45986111447055
C         4.87666387118196   -1.80558933334461    3.40981822174519
C         4.92180410981967   -1.94042102314774    1.91835244098847
C         2.48325540135527   -0.98350415356935    0.98678027868543
N         2.70292078354079   -0.63750045258753   -0.41026553685391
C         2.79842774900801   -1.81294019165947   -1.27210675593528
H         1.98239990183724    1.76443838580407   -2.65342165261771
H         1.21647152973846    0.06957339497926   -2.77020293700437
H         2.90249264908511    0.31393387072525   -2.95323280268686
H         0.94083452165275    0.56216963056420   -0.60091928308159
H         2.32215448089449    2.68068684065360   -0.74651442744761
H         4.64959230941039    2.90248183606524   -0.24906571754282
H         4.47384965163060    1.64416493795505   -1.50440104336759
H         6.03408519019754    1.19336027158202    0.59003746602712
H         5.10067371734418   -0.08337334410302   -0.17470095721850
H         5.02476982186947    0.75921027743588    2.56117060337515
H         2.58481112352460   -1.79588837194407    3.58317154035826
H         3.40399535903639   -0.23410771088556    4.02007112580236
H         5.01140486724981   -2.65909429645618    4.07717989729077
H         5.59898310013732   -1.05060216223056    3.73746699119596
H         4.52507517999231   -2.87953344755555    1.47239610531828
H         5.92389492978117   -1.81246293109346    1.50969846639154
H         1.61955603901224   -0.46842258208981    1.43125073175545
H         2.21575876811946   -2.03927098705333    1.10120002012894
H         3.62714586138548   -2.44152640450358   -0.91884449419362
H         3.05343659645927   -1.58124371873548   -2.31098592304581
H         1.83702961881414   -2.32515563047867   -1.34621255198796
