37
 energy: -49.530380193680 gnorm: 0.155622221401 xtb: 6.4.1 (79825abcba525fcdf90b791dcacef51065a7a4e7)
C         0.73031061932841    0.47392698625712   -1.23935867862629
C         1.84973579326660    0.25893145298420   -0.21106948242144
C         2.80623749798458    1.47643574811619   -0.35773190386444
C         4.30914303413556    1.65284546736340   -0.66110693412407
C         5.32203557677777    0.91697816344612    0.23273343189026
C         4.74485576218936    0.73426739100321    1.62915870196930
O         3.78926576301504    1.81342003765875    1.89191450918993
C         2.78607234088598    2.13706673556724    0.99456003654751
O         1.91840014440715    2.93604581447220    1.34854250574956
C         4.06533561483171   -0.68469419558404    1.77302061348550
C         2.91098503410583   -0.84670534976915    2.94683142347316
C         3.67291699418013   -2.09530319015043    3.41207095762825
C         4.91318275452846   -1.79035245574747    2.62885113388300
C         3.46480925318826   -1.49431872889291    0.56776224274602
N         2.58052114977241   -0.97625870835135   -0.46633482944191
C         3.17613834291639   -1.20748517485095   -1.77985106683941
H        -0.04677116436641    1.03309135054362   -0.70880328374942
H         0.33182938838151   -0.50218022470657   -1.54835849790195
H         1.08821615185071    1.08092855117433   -2.07456958214129
H         1.50945125827312    0.29654156432810    0.82780332464833
H         2.38701639282729    2.25525059466136   -1.00936398457628
H         4.46217716933778    2.72029070765938   -0.44234759562442
H         4.59767619359655    1.66800126865346   -1.71358134634388
H         6.34050992558063    1.32549540060076    0.14213039100095
H         5.37391353245953   -0.09200515224214   -0.18543088698920
H         5.48257718674347    0.83240158803026    2.43376572827807
H         1.93172689596149   -1.05594844256003    2.50798104099858
H         2.64470129774964   -0.08319147368606    3.69101895624003
H         3.13899083800556   -2.97250867867109    3.04135428169745
H         3.89025715920927   -2.38635246461252    4.44510434676289
H         5.29855469573671   -2.45836732640767    1.82669925083860
H         5.67621491298750   -1.44144790760569    3.32426819986633
H         2.85256079647992   -2.14238594996019    1.21119079740365
H         4.24737003986187   -2.15239080485008    0.17555099359387
H         2.77081935688933   -2.09905159941331   -2.27735924281439
H         4.26914617947795   -1.22211113400730   -1.72414974347768
H         3.03246722146016   -0.34907812679460   -2.43912235743372
