37
 energy: -49.566324364727 gnorm: 0.148022478954 xtb: 6.4.1 (79825abcba525fcdf90b791dcacef51065a7a4e7)
C         1.09339300820505    0.66973812881812   -1.55559363170803
C         2.12365860356967    0.40272058398172   -0.44926233959244
C         2.86618043320077    1.76532491013651   -0.34585572002217
C         4.39319751046429    1.76897156202748   -0.56965793962607
C         5.18917268630758    0.91808795315225    0.43474397415211
C         4.46663120603088    0.66005199317322    1.74923039800325
O         3.37704138527364    1.58425510921573    2.07389318540452
C         2.56970096458332    2.12176386813561    1.08613053265701
O         1.62203983855954    2.82286823799732    1.44238501407626
C         3.92799136366661   -0.82451576754599    1.79191050696204
C         3.00769429458102   -0.97105193454876    3.15872620865771
C         4.12755114821490   -1.81199207341705    3.78699765748562
C         4.84980969688211   -1.98332448942580    2.48558489127709
C         3.32468734880529   -1.44535018280892    0.48066664771246
N         3.05873647396891   -0.68000487100458   -0.72897177106883
C         3.02978492283570   -1.49597389684040   -1.94013104497766
H         0.42555654374967    1.40472998915956   -1.09538570133661
H         0.51542445080163   -0.15042018828904   -2.00319406501408
H         1.43985186614818    1.23829764675840   -2.42209860002313
H         1.53969357531158    0.14760504581373    0.43976281008832
H         2.38433123013749    2.58627778939662   -0.89429075030295
H         4.79323641818705    2.79384380268136   -0.55176392023824
H         4.53531610221744    1.46402251273013   -1.60792181235035
H         6.11173676901309    1.48644897439717    0.63026001773372
H         5.46784163102756   -0.03652097974583   -0.01986074688391
H         5.12660037917565    0.82951879971233    2.60770427158169
H         2.15509732430687   -1.59845290742657    2.88529384157906
H         2.70589583463120   -0.09715899739600    3.75278376467026
H         3.76203203841931   -2.79939272582792    4.07584570564440
H         4.69831619029667   -1.45785045593731    4.65181867439286
H         4.64755570155660   -2.90869746072530    1.90164891132282
H         5.91043368255985   -1.75001832601869    2.39501804328240
H         2.46881795874730   -2.04533734795531    0.82175692712640
H         4.08946431228278   -2.14949765727437    0.13630860862903
H         2.38649417835575   -2.38640269851231   -1.94158745706839
H         4.04474789364002   -1.79125771718802   -2.22410344108599
H         2.57697164316171   -0.92204640204053   -2.75112429482244
