37
 energy: -49.577299817579 gnorm: 0.149181040160 xtb: 6.4.1 (79825abcba525fcdf90b791dcacef51065a7a4e7)
C         1.97652868224115    0.53770016338869   -2.39153838784109
C         2.16353579431380    0.45557599590934   -0.87002649371448
C         2.89213197319203    1.70474112993634   -0.29778859990646
C         4.41056110914253    1.50012975502591   -0.48323130197224
C         5.13472003323309    1.59498898039091    0.87065132570351
C         4.31058308513578    0.96172990551364    1.98254363569720
O         3.12874752953418    1.80534141777653    2.17836919651701
C         2.30613572094434    1.92356877546454    1.07124618295890
O         1.14099282777306    2.29078491955505    1.22655401760405
C         3.76159090438740   -0.51965038300158    1.98653131789284
C         3.70953741149436   -1.31609704692634    3.43551986993496
C         4.78180046215847   -2.28995327916941    2.92773971148517
C         5.06235774070308   -1.46986111243891    1.70568249267590
C         2.55707020628820   -0.93695046346495    1.06796608006222
N         2.79893006698201   -0.75132921332656   -0.35567608049290
C         2.51935940611160   -1.97810255404224   -1.09757760620786
H         1.98437056988277    1.56556854683230   -2.76761683720027
H         1.00591348008309    0.12161516859675   -2.69457778499955
H         2.79486546134019   -0.06282074711685   -2.79629026298337
H         1.13184934364825    0.47346536949590   -0.50702807858961
H         2.42414384590550    2.53165436441436   -0.84926378375529
H         4.75030959541040    2.19410324120030   -1.26661255261538
H         4.57331447616924    0.45993099548222   -0.77077497709583
H         5.29167590234329    2.65932371469647    1.10504773833197
H         6.06715802479587    1.02795538406315    0.80259005815139
H         4.80554464497816    1.05600662018508    2.95587844711445
H         2.70940557525110   -1.64126469129368    3.73438628717562
H         4.03543993390503   -0.57976872093859    4.18337259862322
H         4.30170144679110   -3.22707377143039    2.63910918569367
H         5.56412109547714   -2.42613501502711    3.68175123036269
H         4.99313214906633   -1.93204685420305    0.69583339652470
H         6.03553938682671   -0.98581115053809    1.62713012061669
H         1.68858971012145   -0.31179065290626    1.32046644059644
H         2.30041736855033   -1.97519917282866    1.30346312513280
H         3.02579111069195   -2.83681400113835   -0.63624243179725
H         2.84425246987585   -1.84582542341374   -2.13436589431277
H         1.43386031589831   -2.09484944005480   -1.08327432044774
