37
 energy: -49.579027039980 gnorm: 0.145239033007 xtb: 6.4.1 (79825abcba525fcdf90b791dcacef51065a7a4e7)
C         2.13009953237962    0.61377724425636   -2.41263044475272
C         2.15115792367397    0.51273363081246   -0.88094470745923
C         2.74732515833305    1.83574655046573   -0.32153114101002
C         4.26597710156261    2.07917345808779   -0.44928659740686
C         5.07370914408717    1.02393411990806    0.32559499382349
C         4.40200157709441    0.85118632995983    1.68039772855848
O         3.21954498265716    1.61022124737520    2.09563946921216
C         2.28572010651978    1.88154283674449    1.11037557699349
O         1.12515496214328    2.19084362648459    1.38230890201032
C         3.92352298092166   -0.63439385860637    1.92535828940779
C         3.67102080521469   -1.10176060593336    3.49201577969676
C         4.66886884261857   -2.25640761876991    3.32747316994541
C         5.14368000198328   -1.71952791381544    2.01179770143620
C         2.65166220448884   -0.94368294645112    1.05617359916859
N         2.80919835387038   -0.68232476072853   -0.36740734402495
C         2.47615095880933   -1.88936153858781   -1.11953240057493
H         1.59195882827597    1.53848766692177   -2.64355278717134
H         1.37331049738205   -0.09119009041014   -2.78323114530397
H         3.05839529782050    0.51230449838867   -2.98016438094803
H         1.09622064884014    0.44971512138455   -0.59880854486881
H         2.16720415813760    2.62235840383565   -0.82315318249889
H         4.32545170686528    3.12055261718148   -0.09899151023502
H         4.46762183319349    2.12906013366859   -1.52075017301065
H         6.05438719324251    1.48016556765822    0.53177135031451
H         5.18032544515178    0.06594638188697   -0.19063412189445
H         5.08759364726550    1.04912386154632    2.51228711436720
H         2.64187923732713   -1.25097807651561    3.82953704887703
H         4.03731451551162   -0.33333270650267    4.18701437415427
H         4.16451178999653   -3.22355646564965    3.28009667435978
H         5.40726920641268   -2.26726051532002    4.13602219513435
H         5.17255744255794   -2.55176917198659    1.27373021557998
H         6.05311903743237   -1.12208025240784    2.07124763468132
H         1.76180870239838   -0.43757656607433    1.45724300600735
H         2.56139605874774   -2.03140247491971    1.14566205879764
H         3.06075339758807   -2.72047754342725   -0.70218992836377
H         2.69261241693267   -1.80922328416510   -2.18944127040167
H         1.45495663452669   -2.27572058295676   -1.11391753936874
