37
 energy: -49.568455555936 gnorm: 0.142314396854 xtb: 6.4.1 (79825abcba525fcdf90b791dcacef51065a7a4e7)
C         0.90509394846386    0.38725385879871   -1.36732573595614
C         2.09439451052617    0.38923321792003   -0.39661737274443
C         2.85911316341525    1.73219645322004   -0.22232667590150
C         4.32760715041196    1.77888598274566   -0.69479609374825
C         5.26841163201372    0.96179633381630    0.20723163068734
C         4.59012032921900    0.54836663377027    1.50550743588822
O         3.79689524603068    1.66056274521209    2.03520270433208
C         2.73269972385044    2.05475446023308    1.24242906064110
O         1.79622832834446    2.64089577411772    1.78647489029831
C         3.80699150959143   -0.80892623602044    1.70640837441426
C         2.77657763131085   -0.82385640433631    3.00048295122433
C         3.73296174165448   -1.77819555976425    3.72887220765773
C         4.66004522228150   -1.91259827055192    2.55962478923604
C         3.31800190454457   -1.55573931517242    0.41337668074975
N         3.12714920823600   -0.60242562600848   -0.67035608404393
C         3.29125572196778   -1.19590555622174   -1.99489414476108
H         0.27951823738138    1.09437070234239   -0.81356521260042
H         0.53521214937850   -0.64724357245362   -1.35984315207170
H         1.12262558438613    0.73492551059418   -2.38020723494210
H         1.69514844678016    0.13751987482472    0.59014895436751
H         2.48063018158118    2.56105205185552   -0.83606300843147
H         4.73183851441935    2.77911042037759   -0.91127355926333
H         4.43538469559786    1.28939948631566   -1.66431682704351
H         6.17081634975421    1.51963787877650    0.50195825945849
H         5.56722769835870    0.03750174051722   -0.29475293560001
H         5.35703275166496    0.50071282870145    2.28706367505422
H         1.77174344384399   -1.17452715635543    2.75016894132007
H         2.62533073827283    0.18776224448958    3.40226354280838
H         3.38652690461979   -2.77619262053556    4.00452095340901
H         4.05144818820795   -1.18544721940052    4.59277046446738
H         4.65527444318321   -2.91811646583205    2.08306059048286
H         5.69535765114685   -1.67973308397790    2.80753471932599
H         2.40389983657365   -2.13606656933175    0.60436692485547
H         4.09159146850911   -2.27648431292737    0.12811231791693
H         2.62275974033606   -2.06061337329690   -2.10481264252157
H         4.32636854336115   -1.54973016943927   -2.03139463268989
H         2.98420387728229   -0.43761365817029   -2.71798145274904
