37
 energy: -49.583731409734 gnorm: 0.135440446342 xtb: 6.4.1 (79825abcba525fcdf90b791dcacef51065a7a4e7)
C         1.70429626643481    0.58414087596851   -2.24745876774398
C         1.92548630102559    0.58291623518709   -0.72831824626458
C         2.73798651558288    1.83075358160184   -0.27946700799693
C         4.24306816427996    1.80108767035629   -0.61965960149382
C         5.00597023249291    0.84164834145893    0.30978065333424
C         4.36405635341557    0.61273877574985    1.67068853811446
O         3.49459844947829    1.72198994527418    2.07114838220591
C         2.48566652195213    2.06182681277656    1.18630008107156
O         1.47485760154361    2.67686517131384    1.52764934319296
C         3.69107306171308   -0.80134785853471    1.87889125132301
C         3.43653228309043   -1.12865931567556    3.48035336656834
C         4.70278209388440   -1.99511276305821    3.43728893429407
C         4.83014333385888   -1.97265701706529    1.94465292800326
C         2.40600076302992   -1.06945728896600    1.01548052354287
N         2.60869099624329   -0.65233510772896   -0.36460431605817
C         3.23308671796626   -1.61958979034406   -1.26354745357971
H         1.02826239480163    1.38908505934292   -2.55250461732074
H         1.26198464350347   -0.35259468483187   -2.61343742729783
H         2.67105711203703    0.57332345482239   -2.75675335062199
H         0.94182335297626    0.60455754003138   -0.25040230650908
H         2.30141444863045    2.74431459324175   -0.70577014172299
H         4.61994927630982    2.82477336215936   -0.47563649156784
H         4.50251224669990    1.55878470680889   -1.65172622089538
H         6.04602731261449    1.14062454052562    0.51295484330224
H         5.04967966737686   -0.17056845266139   -0.10144519501681
H         5.11597995571434    0.75828770941703    2.45470518837137
H         2.50735790499669   -1.66650688055643    3.68692974816874
H         3.59477976468828   -0.20235275975663    4.05008090081487
H         4.69270074464249   -3.00133724383835    3.86085489426561
H         5.56553831438133   -1.41643728243668    3.78354144817342
H         4.56348614341023   -2.85423842552549    1.32022423174309
H         5.80711581888366   -1.67646847526468    1.56339912097885
H         1.59588483322897   -0.49106642367707    1.48240211707910
H         2.13882207994507   -2.12841280097870    1.09621889151655
H         4.05896965970788   -2.17771400959042   -0.80191635484931
H         3.50029694512096   -1.11726143026724   -2.19855953716471
H         2.52664214760948   -2.40630916387633   -1.53585495771701
