37
 energy: -49.579717155141 gnorm: 0.139846204647 xtb: 6.4.1 (79825abcba525fcdf90b791dcacef51065a7a4e7)
C         2.07117533484267    0.54740828198489   -2.42193910037751
C         2.18340035386162    0.44773799856951   -0.89413485164068
C         2.69039142078112    1.77927933573418   -0.27069296352596
C         4.20842614530819    2.01347647092943   -0.42103957732537
C         5.06829125613336    1.06591746695162    0.43287289347652
C         4.36880505912515    0.84758127968634    1.76687875515989
O         3.23668506741972    1.69419314541044    2.15199686455822
C         2.29073960404659    1.93974941479851    1.17154873957283
O         1.25239685408056    2.56493928780553    1.38951230521748
C         3.77902791883783   -0.60460625168551    1.96489435639538
C         3.64193391384008   -1.19853461454864    3.50276919132813
C         4.82546957497964   -2.16038023422105    3.32933034755579
C         4.87904763850208   -1.81098750198890    1.87339714161635
C         2.60787235792815   -0.97344006241589    0.98452308078024
N         2.89372923078758   -0.73477535430868   -0.42296881563772
C         2.60568984449859   -1.92248438205710   -1.22292570595239
H         1.79923231547915    1.59161165451293   -2.60550439359968
H         1.35252505957875   -0.15335374528984   -2.86862446980614
H         3.03084000933526    0.44363286144124   -2.93418795648983
H         1.18065931752567    0.45375124674160   -0.45716911237988
H         2.07893496084700    2.56429406427937   -0.73630667118577
H         4.47535315759346    3.00891859438999   -0.03560557843602
H         4.47136265775425    1.91700761657323   -1.47590526597707
H         6.01951864843099    1.59645983748500    0.59435505759105
H         5.26595831802622    0.12195923419969   -0.08236551451800
H         5.05825255722391    1.09401550072148    2.58246934541702
H         2.67872955237201   -1.67415772021968    3.70608874378645
H         3.73584528474583   -0.38495171591240    4.23553045945284
H         4.63023925076830   -3.19406447579681    3.62152799628702
H         5.73906762640379   -1.87084835363856    3.85906074764945
H         4.47479714069735   -2.64160160943372    1.25302243489390
H         5.88775730616600   -1.51397298279261    1.58731230297917
H         1.68470171819710   -0.46249402155557    1.29360186746600
H         2.38172680638995   -2.03847540364760    1.10219988663835
H         3.21433666746590   -2.71144229437926   -0.76055894362249
H         2.92791643785583   -1.90670014951340   -2.26882415729597
H         1.56225924508894   -2.18749374159873   -1.04081223719017
