37
 energy: -49.582891175772 gnorm: 0.129079734677 xtb: 6.4.1 (79825abcba525fcdf90b791dcacef51065a7a4e7)
C         2.32275528922091    0.39608905003121   -2.43871986430056
C         2.07918202752616    0.39848961847070   -0.92300855668264
C         2.48764830726932    1.74480868083042   -0.26020967965831
C         3.98001109587731    2.11543631493919   -0.39200617208186
C         4.87089917529243    1.08796952545458    0.32704391758528
C         4.40088093971115    0.81035281327931    1.74779552981409
O         3.26481256139425    1.67336758721952    2.08143823249524
C         2.21190374349141    1.89891780243597    1.21143860093315
O         1.17398305705756    2.37811726224324    1.66927556656080
C         3.84329518243468   -0.65871874910892    1.91157227733294
C         3.67738825528502   -1.22278908417451    3.45782719432360
C         5.04731059678646   -1.88920501572282    3.27024443908375
C         5.06997895043511   -1.73195148016974    1.78046429734367
C         2.53146511749178   -0.83486063186560    1.06490378429722
N         2.81865543567163   -0.72352556756899   -0.35806307459847
C         2.65811190240600   -1.98896150530395   -1.06971475389764
H         2.34148588625330    1.40123608746594   -2.87154604619769
H         1.55032032785662   -0.14611651753840   -3.00122392206185
H         3.30423114162336    0.02494838665195   -2.74381702562164
H         0.99682352679627    0.34822613747782   -0.77321385629440
H         1.81174123760478    2.43817587751193   -0.77916517996892
H         4.13054340485012    3.07606119461174    0.12302226614839
H         4.27940072489781    2.14013516604060   -1.44126271550779
H         5.88781129440437    1.50990019498418    0.31124793111143
H         4.94613691758812    0.10484269152255   -0.14560919158793
H         5.14122483790609    0.89894740266034    2.55109971546262
H         2.81818172417582   -1.89884782652595    3.46307596986801
H         3.57562968024192   -0.47599591746132    4.25759010994704
H         5.42224804427697   -2.83246221171998    3.67234546541582
H         5.76812769677792   -1.18931986387131    3.70577617751543
H         4.73332913406583   -2.63352710662700    1.22186664918327
H         5.96748396091315   -1.32936949033138    1.31145485278485
H         1.73637858819844   -0.13262073756382    1.35392998167028
H         2.03983187844172   -1.77852725213093    1.32390184858593
H         1.63323636675788   -2.11311887340953   -1.44508610001406
H         2.80768420406379   -2.82024579849333   -0.37359892675297
H         3.34061065702376   -2.21405686222880   -1.89170636952948
