37
 energy: -49.575797361185 gnorm: 0.152446821441 xtb: 6.4.1 (79825abcba525fcdf90b791dcacef51065a7a4e7)
C         1.81305214759046    0.76139470019117   -2.35637580211311
C         1.95618643424464    0.59424505476408   -0.83707068670187
C         2.71529158496247    1.84588039428397   -0.31181794577217
C         4.22792921988753    1.85564444862406   -0.61794518019470
C         4.99984984702907    0.91599964493134    0.32418472769449
C         4.42502053979888    0.66679594151338    1.71126513615969
O         3.46713755052698    1.70736105878003    2.09395001131170
C         2.45638779085875    1.90825633509693    1.16960415412430
O         1.36264780598361    2.23204538297160    1.63373740425169
C         3.78382948659611   -0.76027926046675    1.93086996905026
C         3.47178576206195   -1.08762700427858    3.52212005373024
C         4.71429915884735   -1.98730630134846    3.57429586779924
C         4.96137664740202   -1.88207955183919    2.10033269398788
C         2.62396141415358   -0.99717670941596    0.89774016797352
N         2.75737265062761   -0.57258573046014   -0.48848937251275
C         2.82077505219958   -1.78406317190351   -1.30203283277998
H         1.05970460940150    1.50289265808213   -2.64037961973087
H         1.34293123616698   -0.11382791963650   -2.82544419595994
H         2.73594304397768    1.02765002668334   -2.87743723159805
H         0.95764538234852    0.57681521854593   -0.39089050762259
H         2.25193488070601    2.74438442314537   -0.74183459934641
H         4.70066568454199    2.84364972648375   -0.51268256338595
H         4.51347446724626    1.44425000948289   -1.58768844577517
H         6.03343023508951    1.25608839495583    0.49281590348190
H         5.00794444157661   -0.07527755370665   -0.13723052777331
H         5.19250709050713    0.86270105504416    2.46878825287717
H         2.47517008606884   -1.51066286627786    3.67416173494583
H         3.52642615854078   -0.19685668883376    4.16338304467291
H         4.51694768411574   -3.02286056082614    3.85833324247507
H         5.58119040850976   -1.64477864494967    4.14899472221267
H         4.73635106354737   -2.71055802885753    1.39238500139854
H         5.89577984821710   -1.41473547919492    1.79043346183118
H         1.80906724521246   -0.41741731772042    1.35454005424099
H         2.35852356807984   -2.05675616042225    0.97599644020056
H         3.39530805672105   -2.57760918984261   -0.80515749717674
H         3.49592214661395   -1.66220062709134   -2.15485673386629
H         1.93010859932208   -2.32898906107654   -1.62126898135464
