37
 energy: -49.579548431109 gnorm: 0.152532473286 xtb: 6.4.1 (79825abcba525fcdf90b791dcacef51065a7a4e7)
C         1.97964991311641    0.38183186609692   -2.38305344373079
C         2.10785464215091    0.40813340603894   -0.85348283928061
C         2.61172450906406    1.78545970940772   -0.33597971648841
C         4.12125933637146    2.07206308319097   -0.48104851444286
C         4.94002064439585    1.12938180300156    0.41749726880001
C         4.30166411712639    0.89186095800409    1.77860274084663
O         3.15014958758275    1.73232513756192    2.11682982297460
C         2.23172348907799    1.97007134609426    1.10868326304197
O         1.17848778029520    2.52148863240848    1.42986807576564
C         3.85331861339813   -0.61087199838682    1.97011229023477
C         3.76354225520799   -1.12012037495724    3.54148462603663
C         4.80554628373188   -2.20192116185380    3.22538437877760
C         5.12597610212016   -1.63332233112016    1.87678974134649
C         2.65087443744821   -1.06741158226090    1.06763169749153
N         2.86622484716462   -0.72139237101157   -0.33008191614595
C         2.80568857390456   -1.93444449105188   -1.14149448710573
H         1.61115688840802    1.37241564355858   -2.66759971191814
H         1.19888218138392   -0.36356718649844   -2.58759064861577
H         2.90501919665833    0.14401148761049   -2.91339076618729
H         1.05136408171446    0.34552115584174   -0.57712763327095
H         2.09171034213496    2.50572815831685   -0.98229378696553
H         4.17230506183894    3.14692452174085   -0.25130594756567
H         4.47223202406597    1.80576636233739   -1.47959130662277
H         5.97587294181256    1.48896105491567    0.51798625429994
H         4.80286271729824    0.16264809937671   -0.07465485164785
H         5.02390341402848    1.14379059074363    2.56355978384160
H         2.75435997659768   -1.43098629477718    3.82473776689023
H         4.12924640473194   -0.26784262922405    4.13102570937849
H         4.57022799734327   -3.26735539641204    3.26375959629352
H         5.62131392911258   -2.04884805244072    3.93966456404634
H         5.00995913128387   -2.35436200558685    1.03723933082904
H         6.07862155205242   -1.19344800526152    1.58262212787276
H         1.75050715914010   -0.57720231135009    1.46496434540556
H         2.51184013725564   -2.12361503267258    1.32139075016289
H         1.78230921109947   -2.31070042275871   -1.27496626163466
H         3.27062226581785   -2.72843630381328   -0.54870754509299
H         3.36783483401537   -1.72314551432522   -2.05335358596113
