37
 energy: -49.580735638738 gnorm: 0.137164524945 xtb: 6.4.1 (79825abcba525fcdf90b791dcacef51065a7a4e7)
C         2.12639481426448    0.51395584168916   -2.45844804732724
C         2.05007091385101    0.45862074109553   -0.92618594157146
C         2.58990049493988    1.71640933344440   -0.18775925016521
C         4.08199912423029    2.03686317331471   -0.41761327219440
C         5.04409150775947    1.17279321251541    0.41555174750916
C         4.41221759809744    0.78510294774535    1.74482032508849
O         3.31472725258055    1.68950871479146    2.09742276120238
C         2.21414678857947    1.81162255947336    1.26663992830514
O         1.11471976348422    2.12403701043627    1.72509777913154
C         3.84355394640579   -0.68442155870830    1.85890511043150
C         3.69849053016441   -0.98010322435170    3.48005707655764
C         4.74284522844484   -2.08895958064616    3.29099213349527
C         5.09334875532833   -1.73867642623777    1.87708393706832
C         2.58925301811629   -0.93831212708109    0.94729094845443
N         2.82477615736724   -0.68780538632373   -0.46744708064293
C         2.66986893250535   -1.94481358941793   -1.19510400167200
H         1.70337027877841    1.43964001343994   -2.86115012536787
H         1.60150508218344   -0.33838961291408   -2.91127412939506
H         3.11955776564727    0.37139406432291   -2.89137761654798
H         1.00504913022173    0.41014148222385   -0.60674261046809
H         2.04963350662444    2.57119491378953   -0.61715005061486
H         4.28709290658949    3.09084889497618   -0.17726962951327
H         4.23535613593385    2.05136999600229   -1.49810143071836
H         5.98867286349047    1.70603801948007    0.60476405787703
H         5.37803588711781    0.30014819351310   -0.15240236258932
H         5.13291245625737    1.02968394227159    2.53351213718032
H         2.66395169512660   -1.25848427164706    3.69812181521813
H         4.01365363440672   -0.12376360683047    4.09245420847251
H         4.24939371269028   -3.05271942753220    3.43124199163137
H         5.60867352020366   -1.97564607362834    3.95175368684967
H         5.05874043344172   -2.62419594965735    1.20413484970554
H         6.11232592275948   -1.35282955856776    1.85797673638853
H         1.80284390461616   -0.29514530695737    1.36769165810957
H         2.15354880404799   -1.91999172667790    1.16119964686746
H         3.17369076632760   -2.74948107226749   -0.64250797506252
H         3.30046442918257   -1.82403912810182   -2.08152689707967
H         1.68396158350822   -2.23436563979644   -1.56427740304947
