37
 energy: -49.575829797126 gnorm: 0.143413786670 xtb: 6.4.1 (79825abcba525fcdf90b791dcacef51065a7a4e7)
C         2.09565370821714    0.72998359110450   -2.42853894180936
C         2.08271669382327    0.47591355687770   -0.91460515262667
C         2.65487157556876    1.76346789751289   -0.25614884317859
C         4.16257147967576    1.97380371773330   -0.51008131143963
C         4.92701281432498    0.88708200065366    0.26520441638740
C         4.49849697161145    0.74516075087540    1.71873661776959
O         3.41093449570273    1.65803981349298    2.08015465032847
C         2.34565458243984    1.83964215583515    1.21494453003715
O         1.29130586230903    2.28665591124362    1.66777303495691
C         3.88829366850566   -0.70533165110363    1.85880685828459
C         3.46733679208287   -1.09730666081181    3.40985670947592
C         4.74016748906236   -1.94726564806166    3.52585861703646
C         4.99070068423134   -1.89784391066959    2.04955309172400
C         2.58195572640934   -0.91323247250598    1.01085046874835
N         2.78374376532459   -0.70056775988436   -0.41525042128759
C         2.68400637269290   -1.85131922432636   -1.30932757717284
H         1.45774860185422    1.60092136871470   -2.60896724220077
H         1.66000847213414   -0.08679619539190   -3.02026309417975
H         3.15087390830872    0.90720476295368   -2.65041167948519
H         1.04346168204109    0.41946492334835   -0.57811239803843
H         2.02938561435990    2.62884714007152   -0.51462387221193
H         4.48959455208424    3.00834106609328   -0.32704359791885
H         4.39241355890375    1.91721215464696   -1.57551713431150
H         5.98960726011727    1.17509921827020    0.24719363398509
H         4.89568953359419   -0.09114708484725   -0.22232687263650
H         5.29963441376407    0.91360615955818    2.44747569759005
H         2.55985948867901   -1.69571252290835    3.29274902898287
H         3.50033822721181   -0.22559708702540    4.07821955560606
H         4.68608543721215   -2.83657677232001    4.15688818584138
H         5.51935089128865   -1.39518655047435    4.06175628160685
H         4.66797074779936   -2.85948958262707    1.59207519673612
H         6.01147844269168   -1.57959793781061    1.83910208939155
H         1.84970800113621   -0.24021615018307    1.47957415728704
H         2.22430965693556   -1.93869801437451    1.15156165901555
H         3.33007137909382   -2.66029651527127   -0.94211604445011
H         3.01816547336624   -1.53351127796957   -2.30195968310848
H         1.70955632626324   -2.33405724674701   -1.40707108559672
