37
 energy: -49.569500080978 gnorm: 0.147847768328 xtb: 6.4.1 (79825abcba525fcdf90b791dcacef51065a7a4e7)
C         2.24900721277356    0.44620644704014   -2.42791582193759
C         2.13220993052187    0.50254626657729   -0.89824308640764
C         2.68072625513170    1.80993100603920   -0.25902712553422
C         4.19365875863774    2.08061398598719   -0.39919771762501
C         5.03453344343433    1.11994022945760    0.45896211451316
C         4.35288725760427    0.88008284932098    1.79849570004469
O         3.21635032662601    1.76000530351158    2.08272022298925
C         2.22856189537477    2.04832403023293    1.15668806312874
O         1.14566366504509    2.51452994700857    1.51236995999794
C         3.82981612434087   -0.60065750506099    1.97083411727732
C         3.67728403509065   -1.30166411004125    3.46144755298933
C         4.61485670557383   -2.43887114792187    3.03284244202283
C         4.97425419628056   -1.74805857888431    1.75288196065055
C         2.53957056932946   -0.83218842664860    1.10455964365542
N         2.81207727668722   -0.64672467547787   -0.31355591769145
C         2.77394984995724   -1.93287998988679   -1.00485994278087
H         1.37628301925712    0.96826356644047   -2.83266111959024
H         2.14818987899493   -0.60639467625450   -2.72611073643775
H         3.10551477877408    0.98684164623362   -2.83807784804623
H         1.04759106958136    0.46260542204420   -0.76233339089258
H         2.27446697179332    2.63404975414011   -0.86127702200924
H         4.50256633177883    3.06237871202983   -0.01005949832853
H         4.48818236884919    1.89140068458390   -1.43294703296231
H         6.08375996173168    1.44718401903698    0.52544870790796
H         5.04750616737029    0.12976205699423   -0.00469610838630
H         5.02981548761670    1.02701876200815    2.64786824086801
H         2.63577331281754   -1.61361434898314    3.57660526544805
H         3.91735571124733   -0.62356765907640    4.29224617858465
H         4.14446797699356   -3.42335282411147    2.99375620181795
H         5.42481734916590   -2.41374454422591    3.76934554474160
H         4.76856531560978   -2.41061411509958    0.88287317501043
H         6.01928042631813   -1.48053106029166    1.59826448543222
H         1.91690496190536   -0.00416379402465    1.47266609809160
H         1.98693038864911   -1.72617227744611    1.41224719406753
H         3.60570445917910   -2.56191426084075   -0.65962275010858
H         2.92027879122627   -1.81799249116742   -2.08345689984664
H         1.81692951687770   -2.43327368595781   -0.84404663185257
