37
 energy: -49.576808548881 gnorm: 0.141123026659 xtb: 6.4.1 (79825abcba525fcdf90b791dcacef51065a7a4e7)
C         1.92021129940952    0.37598112120236   -2.38692656955733
C         1.98655263964731    0.43182799721927   -0.85421837326414
C         2.56129528049927    1.76021412872316   -0.28519881201209
C         4.07867105511489    1.85408339528482   -0.55098286818566
C         5.02248955590518    1.07504870444364    0.38106550221394
C         4.35299382416448    0.76856040130452    1.71311793014727
O         3.32701809799718    1.73733128955688    2.10760502128980
C         2.36876925529704    2.08646269247689    1.17151974312098
O         1.50340078208751    2.87700908598694    1.54927623656652
C         3.84374184936258   -0.70502087471904    1.96829737722100
C         3.70493193074830   -1.14841099293076    3.55598176312811
C         4.49320572711139   -2.40865177811076    3.17335624028493
C         5.02409133472278   -1.83428803730963    1.89548529200150
C         2.57822108771120   -0.91174334062179    1.06028051915513
N         2.83244972260992   -0.64182550247713   -0.34763304809044
C         2.94093309590528   -1.82426278810161   -1.19829389634552
H         1.17851178010252    1.13615515752924   -2.65155303708366
H         1.61122004565371   -0.61064464949486   -2.75860850067361
H         2.93134627241733    0.59361867607298   -2.73958006256848
H         0.96842409919206    0.33573107467555   -0.46608894044592
H         2.00320860101346    2.56642599993994   -0.78066316247825
H         4.33336016542432    2.92448018477142   -0.54105341889336
H         4.27088310077949    1.57303560424353   -1.58792556036309
H         5.81257367420701    1.81739535361532    0.57361107409470
H         5.39553156470427    0.11788170982819    0.00653774653552
H         5.03354751709623    1.06363167034243    2.51998552685617
H         2.67107694865581   -1.21674965658003    3.90496963022013
H         4.25295621040143   -0.46229644730709    4.21673268503328
H         3.77469166427792   -3.20150181698027    2.95627602326030
H         5.11719174585206   -2.74997387026962    4.00596964863209
H         5.11107715181469   -2.51752752265591    1.02151715667419
H         6.01480802254569   -1.41385490822194    2.06658112520988
H         1.80653897754463   -0.19729911147350    1.38108538380581
H         2.26893529132883   -1.95752186592244    1.16017795167566
H         3.62363409585939   -2.47623927838073   -0.63656925817763
H         3.40760572339827   -1.39613988756002   -2.09099213205713
H         1.94558648778208   -2.26881122419893   -1.25997462276662
