37
 energy: -49.575993889323 gnorm: 0.135262771107 xtb: 6.4.1 (79825abcba525fcdf90b791dcacef51065a7a4e7)
C         0.93801301381390    0.51311934071690   -1.19514437241990
C         2.16413034804834    0.34765773432593   -0.28631368417244
C         2.89554089757496    1.71984069179695   -0.31588865357475
C         4.38159272117635    1.48860352057282   -0.66238718080402
C         5.26646608408578    1.29961286039427    0.58167240671719
C         4.51543778643874    0.76681871797714    1.79353468220250
O         3.49746189412565    1.76963387367875    2.11734039395930
C         2.73026237179919    2.26541801599766    1.07715183276660
O         1.89833976835603    3.13098760550176    1.35141494804179
C         3.95764489193784   -0.71091879246714    1.76105717001407
C         2.75057894097145   -1.11809604469676    2.81642589375609
C         3.58113853633158   -2.30633598094446    3.32064936321109
C         4.81445385716583   -1.78304157278300    2.64999022991773
C         3.80564418976382   -1.40101450926934    0.35769148724121
N         3.09691006421930   -0.69365743754576   -0.69921452813969
C         2.86125167824110   -1.55382526792444   -1.85598886290240
H         0.32674905644289    1.36151398819035   -0.87173626074902
H         0.27085213323351   -0.35004504020107   -1.32513312239239
H         1.18517697378514    0.76389321022924   -2.22962345278987
H         1.86425388724609    0.17591538035368    0.75149337016770
H         2.46007925709606    2.36591832461250   -1.09040793218348
H         4.77367168709218    2.36047418053804   -1.20720831391027
H         4.42725664550408    0.64207134550962   -1.34976012570592
H         5.75638711338149    2.26776217977380    0.76888760279124
H         6.02753420640333    0.58288296895133    0.26124515729170
H         5.12326102458435    0.82636817743024    2.70362284471782
H         1.78695000341867   -1.36588232483986    2.36328127140218
H         2.56894102685634   -0.31015572793909    3.53886320558026
H         3.23305038163000   -3.23102904556796    2.85613366674126
H         3.70591977097289   -2.24888814895371    4.40703502125891
H         5.30971345170970   -2.51983474665085    1.97912750788464
H         5.62099831529193   -1.35678329058169    3.24610034582373
H         3.32852643861848   -2.36157877549054    0.59958926140160
H         4.84986815774586   -1.58995315658934    0.08715791569798
H         2.94070260019650   -0.90017533830761   -2.73526008469238
H         1.87986994533375   -2.03791502817568   -1.83297393672177
H         3.54787776521133   -2.40248296052367   -1.83436885605037
