37
 energy: -49.563397961986 gnorm: 0.147213299672 xtb: 6.4.1 (79825abcba525fcdf90b791dcacef51065a7a4e7)
C         0.85009186859160    0.60623034761470   -1.03522739968330
C         2.11903054879930    0.32390128022008   -0.21864954574791
C         2.98588491959605    1.61253754869182   -0.30051641508494
C         4.47695116222950    1.47996322258616   -0.67605255145268
C         5.31510992030078    1.33215036859815    0.60537004406684
C         4.49470863443177    0.80109185731507    1.77217846783219
O         3.40906171794805    1.73605630539126    2.07873282023603
C         2.84047397456835    2.37402067521855    0.98965122161594
O         2.06645964806578    3.31933317528106    1.14396356574851
C         3.98461251839413   -0.69392045663683    1.74695885095549
C         2.76911144777206   -1.20317216098913    2.74687111644958
C         3.70716138593700   -2.28727130619710    3.29530165790809
C         4.90516632288529   -1.77841959377600    2.55331681823512
C         3.82187435673768   -1.39261878737673    0.34906453902244
N         2.85125943975953   -0.87582920306053   -0.60515955027497
C         2.55486151345499   -1.70168255560815   -1.77292019240853
H         0.41709842199834    1.47103662409108   -0.52274648152581
H         0.12378370020685   -0.21351882121731   -1.12206752578950
H         1.06264101280890    0.80941107592082   -2.08768403786339
H         1.78356552658916    0.28042591910221    0.82156096865212
H         2.57574795182303    2.25724056151016   -1.08986359175033
H         4.81271681750781    2.46549137600171   -1.03201620450080
H         4.72333233473971    0.70153665618697   -1.40029828220323
H         5.81352975866868    2.22740240466216    1.00846645994886
H         6.18511198594734    0.67080650876989    0.56902780385266
H         5.07816342506933    0.90146309733480    2.69454598082693
H         1.97202513939143   -1.49592340108552    2.05819923347450
H         2.37904271684905   -0.45142172771829    3.44715193744640
H         3.27524627607722   -3.18480846026819    2.84822911554951
H         3.77570874254434   -2.38905337435324    4.38344047267614
H         5.37613519900108   -2.58551557797807    1.94917492558039
H         5.65228343747504   -1.27096504831542    3.16312274198970
H         3.61542208970565   -2.46810815850877    0.44673574332528
H         4.80527411556591   -1.21576931696582   -0.09919777558171
H         2.00883567477244   -2.61989055578993   -1.51711088197965
H         3.52362609972941   -1.90124539241859   -2.24159122752106
H         2.08058436495818   -1.13242821850306   -2.57488862387438
