37
 energy: -49.580618504733 gnorm: 0.126859411025 xtb: 6.4.1 (79825abcba525fcdf90b791dcacef51065a7a4e7)
C         2.54510511028895    0.53355185744528   -2.43021029425015
C         2.16507061598695    0.38829503295528   -0.94994385635999
C         2.54395214594692    1.73792454595437   -0.27639276396902
C         4.01431126139428    2.15213940213348   -0.49628362787054
C         4.89808832919871    1.18775737440002    0.31322734074494
C         4.37510835636266    0.92773115806231    1.71871716085385
O         3.17872299867026    1.65726906366144    2.14673567417749
C         2.19006186688874    1.78267998893705    1.18589722541976
O         1.01806517306517    2.04835280914533    1.45491002573823
C         3.88250364214041   -0.55495797993852    1.95295949023732
C         3.91810266262409   -0.98785602900682    3.54918526121975
C         5.03038019972112   -2.00912433901553    3.27380476148692
C         5.00374414999980   -1.73542728478183    1.80102920535147
C         2.61957864706231   -0.93127074579433    1.09728386501660
N         2.79191667680702   -0.77800047139677   -0.34025440794622
C         2.32340376312244   -2.00181595127198   -0.98548443590783
H         2.69810232024143    1.58661907743684   -2.68643518664687
H         1.89540313233700   -0.02005292920608   -3.12192016663816
H         3.55355072125862    0.12144176827133   -2.51580967717261
H         1.08108732166535    0.28270473380552   -0.84847605157629
H         1.80663991009981    2.42978022003991   -0.70607829720140
H         4.16226393940493    3.21663810181009   -0.26034518686281
H         4.33076733407043    2.15661525763668   -1.54080217626197
H         5.94876664332809    1.50627822832242    0.22953265489250
H         4.76425378196711    0.25111667823899   -0.23485347548145
H         5.08478550059176    1.11219341331943    2.53332610621403
H         3.01476222651186   -1.52677984422013    3.84727251701456
H         4.02552718051654   -0.15077830941398    4.25305771212806
H         4.68937672895906   -2.99621519949273    3.59218460963003
H         6.00819997084344   -1.86704944557315    3.74580860541072
H         4.49838570048890   -2.53777005912590    1.21873893916673
H         5.97061567736447   -1.44867585345868    1.38812434099824
H         1.69122886543942   -0.42210643107553    1.39352359825582
H         2.46655656688037   -1.99706487016233    1.29717649679282
H         1.22789305522934   -2.08212061770329   -0.97568566223167
H         2.76842023914788   -2.81963658406814   -0.41006072425112
H         2.62087626321111   -1.93584492240768   -2.03395982032624
