37
 energy: -49.579040411293 gnorm: 0.135850227648 xtb: 6.4.1 (79825abcba525fcdf90b791dcacef51065a7a4e7)
C         2.01592645343195    0.44986305095034   -2.42601228759266
C         2.03080315885395    0.43355779813732   -0.89101155355397
C         2.61050818636162    1.76298958397505   -0.32951778988118
C         4.11082986499734    2.11078286869551   -0.42930006540837
C         4.93714782186602    1.15350024934147    0.44660586660324
C         4.31355614985030    0.84614023550286    1.80055806028064
O         3.18387009890187    1.72368914065116    2.11754485820212
C         2.24610018713900    1.93292425083851    1.12095191444942
O         1.15174823935617    2.36851029944441    1.48037474475997
C         3.96886526453140   -0.69483314137684    1.85040928921189
C         3.65476178681861   -1.14217339688096    3.41176460320511
C         4.95387522159901   -1.95602876845875    3.33476836130089
C         5.14969332230869   -1.82593609844302    1.85509996466334
C         2.63895789359851   -0.94817225608797    1.05295255496369
N         2.72378074712575   -0.74539606027078   -0.38628172112913
C         2.75838495249564   -1.99639575466549   -1.13950992427290
H         1.74130965765198    1.42650742681389   -2.83681793198028
H         1.27253498679562   -0.28344921860701   -2.76759054069407
H         2.89934439223649    0.22279592429697   -3.02779112546263
H         1.00876687610222    0.43510339228624   -0.50126262208640
H         1.98557141713754    2.48859920149485   -0.86791166256114
H         4.27153338262492    3.11951324116010   -0.02021348499736
H         4.48183802497362    2.04311577759517   -1.45348636469536
H         5.95578642444934    1.56058892233515    0.54168193836451
H         5.12457168580749    0.21016888989691   -0.07358475567237
H         4.96452391001865    0.86306825410282    2.68215327097613
H         2.71527914763473   -1.67210953147199    3.59025520073783
H         3.69650907802374   -0.28133874208183    4.09359773972979
H         4.92930654563356   -2.99661899036412    3.66426165722869
H         5.76475357915883   -1.42923682119398    3.84864669775476
H         4.91357121281177   -2.75652006445412    1.29254964863396
H         6.15068683348616   -1.46635029700508    1.61789248688712
H         1.85633345317384   -0.26983998811200    1.42201069500675
H         2.20722039925573   -1.92437518490065    1.29773916448067
H         1.81242152852064   -2.54243176285302   -1.02252090772113
H         3.51391597468931   -2.64571758685444   -0.68614834677001
H         3.08529803225276   -1.81140265987980   -2.16471628195832
