37
 energy: -49.569277159172 gnorm: 0.158288704227 xtb: 6.4.1 (79825abcba525fcdf90b791dcacef51065a7a4e7)
C         1.58431700278208    0.57433936152300   -2.26189217033566
C         1.94065170701412    0.49415989161635   -0.77081494252345
C         2.70857727027104    1.78727317802162   -0.37474617180462
C         4.24247157545398    1.73864254051306   -0.53810219403536
C         5.00801054021966    0.82534645113323    0.43464800804000
C         4.26022006334845    0.67098531358096    1.75127451870200
O         3.18944159852795    1.62212990348217    2.06033885354618
C         2.40365235400048    2.15465054050905    1.05269491675554
O         1.61637262395942    3.00254359866851    1.47435137950193
C         3.72958614321278   -0.80894016927642    1.90665845203463
C         3.60885246222364   -1.08450884098147    3.53333912738977
C         4.53069801980153   -2.30450943403986    3.39998237132335
C         4.94859598552838   -1.89273934127267    2.02139828659963
C         2.52075121876065   -1.20703623354666    0.98524146448017
N         2.74269759714896   -0.64384019880359   -0.33886520560831
C         3.36942910875525   -1.44783774204517   -1.38497514089444
H         0.73567535309723    1.26155892702165   -2.33636719519643
H         1.30669220920147   -0.44868328502778   -2.55068726744179
H         2.41057239351635    0.82581491329184   -2.93135956783657
H         1.00121802883536    0.58091165652195   -0.21727786252477
H         2.19781881922519    2.60888450806849   -0.89532651430768
H         4.60285678270303    2.75803977273263   -0.33397914461011
H         4.35382092108504    1.35793838494787   -1.55488592638959
H         5.98172803526907    1.28850923786842    0.65767207811254
H         5.12373021178267   -0.15964863700552   -0.02577971350229
H         4.96569163580347    0.76269678290844    2.58503382663525
H         2.59800732328513   -1.24978007978392    3.91569544948803
H         3.96536329223141   -0.23568171657950    4.13339588223536
H         4.06676060951181   -3.29215849541128    3.43616072441616
H         5.25461069325017   -2.26929270955322    4.22084450007065
H         4.76691415514572   -2.64706121326334    1.22378103996600
H         5.84884206498852   -1.28827055966390    1.91308458716892
H         1.57943288403297   -0.77104650498318    1.34948361924117
H         2.54516120631793   -2.29275534301197    0.84414540247045
H         4.35116773624281   -1.75346623491331   -0.99836286507934
H         3.44309227253264   -0.95107395084493   -2.35748846298003
H         2.90718825046679   -2.39993746505630   -1.65327010678884
