37
 energy: -49.581948207143 gnorm: 0.133487858415 xtb: 6.4.1 (79825abcba525fcdf90b791dcacef51065a7a4e7)
C         1.94257824031433    0.53989634479331   -2.35124542890617
C         2.01739808146425    0.35975382096481   -0.82852905515095
C         2.52896351973845    1.73325894496309   -0.30842657373740
C         4.03062515274191    1.89670680243002   -0.62493719709853
C         4.93159119209308    1.06947343682207    0.30798709367538
C         4.38377007500657    0.86938868433083    1.71382541843107
O         3.21588829253358    1.67272818373719    2.08458286531782
C         2.22304058256167    1.92336570100652    1.15301242023773
O         1.15200169897731    2.39181745381032    1.54025243098291
C         3.88773329647690   -0.60312306068691    1.99939957208852
C         3.63122010186340   -1.12052520010819    3.54959333686544
C         4.86020227163628   -2.03136287208772    3.42325149498168
C         5.06266614216257   -1.73991508529822    1.96765747018123
C         2.70954355644783   -0.99813206900758    1.03783395445643
N         2.92466256699405   -0.68385901483074   -0.36739368703266
C         2.92270273367258   -1.84556537320871   -1.25282294020508
H         1.50502404669167    1.53208986251053   -2.49993391767051
H         1.32446229846515   -0.25034414315953   -2.79902453127016
H         2.91230613774059    0.62822191768691   -2.84717982384946
H         1.04601977520998    0.20233389519933   -0.35092256316984
H         1.96158038307169    2.51380451925651   -0.83354392838374
H         4.39686197401226    2.92439965493660   -0.48199522149247
H         4.26579744498006    1.67680740978748   -1.66778029085397
H         5.92301191574350    1.54850391077835    0.30794925063221
H         5.21988410195834    0.12217656890729   -0.15581876833858
H         5.12123265764272    1.12259073321089    2.48408080141327
H         2.68990733436622   -1.63778929700295    3.75376716657464
H         3.59303945159870   -0.29929793579713    4.27884197634779
H         4.70790531885437   -3.10590071544196    3.54229570054608
H         5.68694120177793   -1.74032816558813    4.07968576471835
H         4.63604860574805   -2.57828910355693    1.37324218862374
H         6.01506032570144   -1.34046896213569    1.61988530999562
H         1.79980769686090   -0.45085897289449    1.32368781740167
H         2.65200272515370   -2.07988258439960    1.19844159374338
H         1.92147640903333   -2.29301540600206   -1.18939674171531
H         3.65533486858594   -2.53182266203456   -0.81660763918711
H         3.25768379142486   -1.55854046277710   -2.25159573034816
