37
 energy: -49.576689333914 gnorm: 0.140593990970 xtb: 6.4.1 (79825abcba525fcdf90b791dcacef51065a7a4e7)
C         2.04335408514876    0.63947336174854   -2.41107075496549
C         1.98358254456964    0.53171684205741   -0.88086476953499
C         2.66148517662513    1.80940222178936   -0.30929660394925
C         4.17728878461782    1.97222453801413   -0.54952594223202
C         5.06710376343652    1.02242120396417    0.27053838589703
C         4.45992750957078    0.78557888256131    1.64595322484845
O         3.41134504425277    1.72259762893535    2.05733378404692
C         2.38409608463474    1.96583333148594    1.16179752457849
O         1.26950951469821    2.23036683920716    1.61373220023809
C         3.88184315816442   -0.65125930378352    1.95773901457682
C         3.56426827876523   -1.09903587419483    3.51826681182268
C         4.57714884280269   -2.24765395796465    3.41466104518946
C         4.98062796862488   -1.86037253541303    2.02473116033394
C         2.62333316529449   -0.84274855636605    1.03673086397109
N         2.76504692939443   -0.59725228320126   -0.39132977764611
C         2.80028130330737   -1.84020046797516   -1.15774270561411
H         1.35480367717807    1.46273346354312   -2.62589871246147
H         1.61404253464018   -0.32937033241973   -2.70104827235606
H         2.97205452930765    0.64501642186590   -2.98692600836312
H         0.94134818632692    0.41743272449933   -0.56917346837148
H         2.11065768049192    2.63181435722862   -0.78589978578599
H         4.47691952272893    3.01804158064206   -0.38459399261049
H         4.39540810379420    1.74685053687089   -1.59490338261017
H         6.00192592083268    1.58796375608029    0.40711953192377
H         5.14285328153843    0.06020106293357   -0.24326551177945
H         5.21920966452401    0.98454115098664    2.41091094195791
H         2.55725926515691   -1.45425682967279    3.75293622937675
H         3.88133171258722   -0.35116209576948    4.25842297145970
H         4.22572273228511   -3.27437082514196    3.53445095047087
H         5.46710387206267   -2.14942940998607    4.04508660935333
H         4.70462035299606   -2.64718066235220    1.28787581567432
H         6.01876189022402   -1.53378757981922    1.96836116822477
H         1.78766629039358   -0.21180582920409    1.37200945784691
H         2.22972227672383   -1.84523459518879    1.23518015252453
H         3.25554705245275   -2.70166071372759   -0.65048744789570
H         3.22125301703358   -1.69957970889975   -2.15823823555112
H         1.80317618231480   -2.20616057589870   -1.41071950380279
