37
 energy: -49.571542668047 gnorm: 0.142113865215 xtb: 6.4.1 (79825abcba525fcdf90b791dcacef51065a7a4e7)
C         1.86061501862434    0.59299080358079   -2.37234296836444
C         2.04190007565986    0.49752416007481   -0.85091720880652
C         2.81807415011966    1.72554884077956   -0.29573136238888
C         4.34025690627363    1.55320721233491   -0.48318768185426
C         5.15604705173296    1.29619163978068    0.79541782045577
C         4.29674681561743    0.89340839837920    1.98533045973725
O         3.07781385527695    1.68996464773017    2.14800773157306
C         2.28706252390519    2.05776483115495    1.07291489173008
O         1.19963443835113    2.59507722462715    1.28580389134707
C         3.86261504911013   -0.62256877404063    1.88921192741585
C         3.68370421899220   -1.15851834886346    3.44399606447220
C         4.75753916680269   -2.23007751892674    3.21027795609909
C         5.11007865969374   -1.67939375275808    1.86226063754535
C         2.67268867981052   -1.04685207413408    0.95495792664478
N         2.79219207945137   -0.68640371208334   -0.45056844468767
C         2.53751712695841   -1.86426311414626   -1.27600067643543
H         1.39550747538814    1.54695859868207   -2.63998140500125
H         1.05092539704851   -0.11492258369860   -2.59665263658513
H         2.72842552577953    0.48050376171142   -3.02684744796478
H         1.04483114009325    0.46124575891094   -0.40258448670336
H         2.42408794136227    2.54430965099102   -0.91324967534016
H         4.84464767741605    2.40085307783180   -0.97083597947241
H         4.37305369227848    0.81221273198140   -1.28383431679854
H         5.70468828736793    2.23431311187775    0.97235328442918
H         5.85356217912936    0.48871947746843    0.55654252690826
H         4.81999799452897    1.13944654008914    2.91642075841634
H         2.68183185165727   -1.44624657918716    3.77381883578582
H         4.06973280392256   -0.36889585512985    4.10365796455762
H         4.40308887564159   -3.25890070048139    3.12147866192144
H         5.58320299162421   -2.32012256406269    3.92391340109691
H         5.03967624319362   -2.37519772566711    0.99675305634157
H         6.06478606108169   -1.15417186174464    1.84699278687816
H         1.74978507196714   -0.70441295194614    1.44467619679855
H         2.62013195411861   -2.12117172452987    1.16078556688917
H         3.34083871288012   -2.58827201815322   -1.08319479864934
H         2.81876391273194   -1.66811766517324   -2.31542835922796
H         1.62622732528868   -2.34190585151061   -0.91055436171067
