37
 energy: -49.582797652461 gnorm: 0.142776519997 xtb: 6.4.1 (79825abcba525fcdf90b791dcacef51065a7a4e7)
C         2.28250604173234    0.46694682281085   -2.36726819371589
C         2.12275932443292    0.37927790576285   -0.84296190955433
C         2.90829439650000    1.59291093800409   -0.26959321472790
C         4.42224175553533    1.29718569620524   -0.31849977508107
C         5.05077730064629    1.68849412678126    1.02991537163458
C         4.17905620306679    1.05097188650876    2.10238497876372
O         2.91737092921306    1.78106444882980    2.25029866598004
C         2.31543798290221    2.05552244992698    1.03426461951312
O         1.26282273063528    2.69442545109464    1.05243805974088
C         3.80046124828654   -0.46856928285006    1.89368316741364
C         3.97100424497223   -1.31161960608326    3.30675994243597
C         4.82504705390420   -2.33835844436548    2.55018678512565
C         5.08134092662391   -1.37427240294051    1.43235900089463
C         2.46695953573889   -0.89688049843160    1.18157762073042
N         2.65452156665492   -0.84704217748850   -0.26135172598412
C         2.21431662082186   -2.10973456342513   -0.84904043196205
H         1.92505644803039    1.43711416336105   -2.72645482204641
H         1.75053778917542   -0.34916635792863   -2.87522737115199
H         3.35840212137992    0.35908348416879   -2.52518481307459
H         1.09481206094765    0.54022857911130   -0.50549468903350
H         2.65954144430993    2.37132027488851   -1.00384395035475
H         4.85744398633117    1.76001054137511   -1.21689089895065
H         4.61169797880588    0.22383674947140   -0.37517309146501
H         5.03500897532715    2.78590978044096    1.11832072941012
H         6.10321253275854    1.39980357801530    1.09801752295918
H         4.72982510958396    1.19827437877858    3.03844656947011
H         2.96514981964127   -1.60923406723049    3.61498282561186
H         4.49591398286943   -0.85463521843230    4.15723663289684
H         4.19057292895585   -3.08476801602492    2.06819840360660
H         5.63335941153735   -2.88520743077252    3.04686749640399
H         4.89302184864810   -1.76546147325716    0.40780539950007
H         6.01197114342602   -0.80782007290594    1.45718888601080
H         1.62826165066149   -0.28839457602642    1.54923281642426
H         2.27317379168040   -1.94613409181296    1.42816213072209
H         2.56650051254860   -2.95063037879895   -0.23621965741990
H         2.55199386467736   -2.00142451346068   -1.88452375531449
H         1.12676769422081   -2.13652422215130   -0.94211214032333
