37
 energy: -49.574914856303 gnorm: 0.139140566202 xtb: 6.4.1 (79825abcba525fcdf90b791dcacef51065a7a4e7)
C         2.13513287534411    0.51575282829405   -2.43606561848809
C         2.07595840459548    0.38510373957597   -0.90762075853640
C         2.75171647684580    1.63308043982884   -0.27151753164772
C         4.27152744242248    1.46263659917824   -0.47889497702898
C         5.05423523713206    1.61369595726662    0.83676158636604
C         4.27789087682495    0.98942921814385    1.98745867432814
O         3.09763973704026    1.81786112910915    2.24721073941961
C         2.33348167029679    2.04298571031189    1.11505764186196
O         1.28766316587382    2.69103310134552    1.16820298015422
C         3.86240867615687   -0.53468404950195    1.96877199987627
C         3.74180668040210   -1.35867949214810    3.39813947372970
C         4.71359915281770   -2.43608834929147    2.89734585979403
C         5.14913271996109   -1.52747484455292    1.78855399256427
C         2.64354273810842   -0.93974645623999    1.06375163509405
N         2.74400980987430   -0.79903890551959   -0.38186802467945
C         2.37002381243995   -2.04675540758014   -1.04284341303889
H         1.32242984579237    1.19955911535527   -2.70051346556925
H         2.05265228189125   -0.35708937541502   -3.09818109521782
H         3.05812838423346    1.08247117366445   -2.58109713283358
H         1.02651245588756    0.37753117692107   -0.59928543827923
H         2.41612252225416    2.46296009201212   -0.90838465413946
H         4.54679652480642    2.34468633200583   -1.07633086752276
H         4.56603205486420    0.49380666072301   -0.88610385040507
H         5.20936670165563    2.65826497192157    1.14852281667379
H         6.05272160127181    1.19166539559546    0.69353018766241
H         4.98155993021107    1.15595650248501    2.81109344323252
H         2.73339209387583   -1.63041960221464    3.72152185012700
H         4.17754324405945   -0.80754337881679    4.24315911498781
H         4.18818659860386   -3.30238999369436    2.49057741242228
H         5.46265217968276   -2.64018167165230    3.66959574664647
H         5.25365279746767   -1.99586499000284    0.78461711046655
H         6.01476186536602   -0.86957508037335    1.86211653999364
H         1.80946517261852   -0.30132837491057    1.38867712243905
H         2.43941277183526   -1.99265018096783    1.28514411581365
H         2.87915588170507   -2.92615770427054   -0.62556089398747
H         2.60191891792660   -2.03438738009825   -2.11244819355825
H         1.31593076233050   -2.31635507811284   -0.95148395045109
