37
 energy: -49.576734391697 gnorm: 0.136962395309 xtb: 6.4.1 (79825abcba525fcdf90b791dcacef51065a7a4e7)
C         2.39342214636787    0.47060587618601   -2.42377391189900
C         2.07815705713346    0.41596224993221   -0.92232911096055
C         2.54305530832232    1.72600723329940   -0.22492400993238
C         4.02672773004883    2.08762508637664   -0.44815158749777
C         4.98254895722223    1.13896614878021    0.29539035717785
C         4.41831907381345    0.86823723245877    1.68278858193559
O         3.24308079153143    1.64588202853492    2.08384579248518
C         2.19738348547081    1.93711337840745    1.22472373323507
O         1.12314792337588    2.33586372353173    1.67588035408214
C         3.86142220764591   -0.59310839373920    1.90691090837020
C         3.72837471340228   -1.07317428617425    3.48438985903889
C         4.95548397196360   -1.96093420750106    3.23525155197193
C         4.90307339104442   -1.84280361479156    1.74260769129783
C         2.55425240017523   -0.84411159166494    1.07200005064320
N         2.82345248143227   -0.69918086519187   -0.35145872489555
C         2.61005963209514   -1.97856911775379   -1.02315781314927
H         2.04627831717279    1.28929347493123   -3.06193665335428
H         1.92042703922412   -0.45301787752783   -2.78467315911474
H         3.43422422549681    0.21456785777539   -2.63661209501230
H         1.00407516577604    0.26036550011594   -0.78593794541504
H         1.90845955762817    2.52681476855558   -0.62855602267978
H         4.14975079526789    3.10425214550331   -0.04559825346212
H         4.22281621288350    2.18303533143370   -1.51755781415077
H         5.97200619168920    1.61198048660398    0.39345707749020
H         5.07644934535836    0.20122669175290   -0.25907108139711
H         5.20168454842326    1.11392086754271    2.40889725268291
H         2.85970685511906   -1.69610766635800    3.71393068656710
H         3.84468882539197   -0.39783093865435    4.34349285262913
H         4.75920325470046   -2.96579382424521    3.61436696292101
H         5.91280149934263   -1.68852619749534    3.69180542589258
H         4.42240072728287   -2.72489610616939    1.26399545514540
H         5.85012474120562   -1.57957609911787    1.27211605430302
H         1.82143426812963   -0.10421223429097    1.42465589047510
H         2.13282386861128   -1.83183585298316    1.28668288095346
H         1.66191075760868   -2.25489446935187   -1.50414282021006
H         2.78464333684058   -2.78994660850188   -0.30959646496682
H         3.30547057781883   -2.12617899228088   -1.85186622827712
