37
 energy: -49.574441016054 gnorm: 0.142901544020 xtb: 6.4.1 (79825abcba525fcdf90b791dcacef51065a7a4e7)
C         1.86261816296227    0.48174404295365   -2.32629949873460
C         2.01983148906931    0.38663284970530   -0.80217604289326
C         2.63473277617085    1.71045832318657   -0.26542227094772
C         4.13460441550713    1.91034184906968   -0.56925360218812
C         5.03671420109971    1.17026966496796    0.43319025843424
C         4.43631578291372    0.97511172641488    1.81809401886070
O         3.38833912867233    1.93947572413168    2.16234729001014
C         2.39318700239928    1.95402890180535    1.20013645169723
O         1.28407807750993    2.29143794165344    1.61553831201179
C         3.89744519331208   -0.50651175295227    1.91961376493687
C         3.57686904943356   -1.03028608787454    3.45567889566170
C         4.45012614616525   -2.26335569843683    3.18559357197441
C         5.09583840744898   -1.61618889898262    1.99861496802757
C         2.79258774557962   -1.01756193324380    0.92619073575034
N         2.92012760807414   -0.71726799960527   -0.49270516672347
C         2.75387206921479   -1.93749872204618   -1.27816460769862
H         1.21760109714370   -0.34297232865367   -2.64536971559171
H         2.79496282723362    0.22202549226266   -2.84623523265954
H         1.34423809055277    1.37804628679084   -2.67565449023229
H         1.02206422134797    0.29601563661268   -0.36318424438583
H         1.96868939998272    2.47525543869428   -0.68779041724942
H         4.40519427851689    2.96745054912699   -0.42777305262000
H         4.55223668942270    1.59762974725153   -1.52788694820325
H         6.00673345063711    1.69046254439140    0.46229829127873
H         5.08244680020412    0.16463992732080    0.00632094014441
H         5.22683142927805    1.20405204206564    2.54192206244233
H         2.54104774443117   -1.27523479657316    3.70546516277364
H         4.01982511245438   -0.35746154920660    4.20318985107558
H         3.90128500763593   -3.20476173066291    3.11832137194626
H         5.18931709747114   -2.37089737044342    3.98630321828835
H         5.11225277980058   -2.25652909035190    1.08872593844462
H         6.03364816245329   -1.17578618382849    2.33642508148087
H         1.81329880211318   -0.66009019313816    1.27554258695598
H         2.87007241406507   -2.10360131488764    1.04368337245967
H         1.68956177035964   -2.15469933993939   -1.44173734919937
H         3.21078844079237   -2.76371423406708   -0.72446969821953
H         3.22911369707851   -1.96623204483587   -2.26074411100275
