37
 energy: -49.578048838967 gnorm: 0.141957854994 xtb: 6.4.1 (79825abcba525fcdf90b791dcacef51065a7a4e7)
C         1.81604648690329    0.44607729146545   -2.27648213459748
C         2.01358304532672    0.25500342352653   -0.76612304896076
C         2.60445414196925    1.58045072322681   -0.20685307178311
C         4.05424572513744    1.99332825467108   -0.53778869166684
C         5.00063172756404    1.17432586252609    0.35663360334542
C         4.44249922953532    0.88286767031258    1.74229719039412
O         3.36253563671601    1.75211899546971    2.21647448529508
C         2.41583993943141    1.97905138536178    1.23227012898818
O         1.47405949935330    2.73586876958530    1.47060443232068
C         3.91111526766784   -0.59969442945202    1.86694339206775
C         3.57072754130056   -0.96237166544210    3.44466522141781
C         4.47988474735038   -2.19142988389956    3.30742901152766
C         5.07739447984856   -1.73672195366458    2.01092979553686
C         2.69861378246148   -1.06523647249679    0.98270225251998
N         2.94350986664344   -0.81627673908779   -0.43071680566573
C         2.92995341145873   -1.94005367635742   -1.36371845747194
H         1.37537816118831   -0.42465465976072   -2.77211022559151
H         2.70640197068674    0.70911743714601   -2.86396018391126
H         1.05735071735795    1.21634131225003   -2.43522278980868
H         0.99290936452716    0.14693837966356   -0.38795378913802
H         1.86900059792470    2.32926368464951   -0.53136889505867
H         4.18208138644573    3.06878800747265   -0.34347246283376
H         4.33268804903888    1.72798304047505   -1.55918248215462
H         5.92593917219285    1.77064559435170    0.38100934681867
H         5.08707237672691    0.22661642332636   -0.18185956790379
H         5.23985759354075    1.00222788738132    2.48474482764735
H         2.50270850447818   -1.09589336689714    3.63656658089223
H         4.04641256244929   -0.21133060642944    4.09068121378776
H         3.90939254702168   -3.11884624441486    3.22721051409026
H         5.17837123934610   -2.30218174962843    4.14346433169174
H         5.20688109415843   -2.48290984440500    1.19567530179843
H         6.05125310186829   -1.27084864649614    2.15965373909074
H         1.79862181266942   -0.55950958213658    1.36098042501837
H         2.52475998192409   -2.11423770004851    1.24473510846326
H         1.89706747581104   -2.30472744956619   -1.44647261330777
H         3.53334383524121   -2.79050685239531   -1.03110443523076
H         3.28459934558508   -1.63439816568480   -2.35009752429878
