37
 energy: -49.581634262283 gnorm: 0.144921268208 xtb: 6.4.1 (79825abcba525fcdf90b791dcacef51065a7a4e7)
C         1.82158402434645    0.57703510157840   -2.31897618399986
C         2.02618378129963    0.46809883484818   -0.80141686053719
C         2.67509646655723    1.77992664601671   -0.27535391734239
C         4.19440518644797    1.92033256618060   -0.50745100766190
C         4.89857795440091    0.85918276453052    0.35539569643760
C         4.32412103746132    0.80800489333094    1.76390676115420
O         3.22218201798802    1.68618803472974    2.16551365799092
C         2.32842490076979    2.03387723338432    1.16716516849859
O         1.25579860570616    2.53572805306390    1.50501834699564
C         3.79932048459763   -0.67661645933357    1.89189034239703
C         3.54573021737538   -1.12397446721992    3.46420313792837
C         4.86160791736285   -1.91388730868710    3.44210592848597
C         5.02257251786030   -1.75953317983457    1.96056868666167
C         2.59973436452529   -1.07170443702135    0.95718704359691
N         2.79450076591971   -0.71722750655884   -0.44142677042552
C         3.05444507436646   -1.83817396533034   -1.34112584618673
H         1.55218465768444    1.59460220092387   -2.61896133019676
H         1.00800423000654   -0.13156176414804   -2.52641742885419
H         2.69950761259451    0.29030980703704   -2.90306804268531
H         1.03172615320167    0.53523945781287   -0.35084947940228
H         2.16065096459601    2.66108767071366   -0.68256927050428
H         4.46889606371788    2.95470200981258   -0.25162090489758
H         4.41638921787370    1.69765169086156   -1.55259205193035
H         5.99293097169423    0.96074486887586    0.28859841891275
H         4.76792488215148   -0.09593953345325   -0.16061906150725
H         5.01022277413742    0.89164306813137    2.61450936064711
H         2.69353157947770   -1.79662111146925    3.59313261462804
H         3.51697269428743   -0.22379963583844    4.09391247398821
H         4.73345902646580   -2.89654310967912    3.90032301827462
H         5.61658772182190   -1.39047958714122    4.03805413404850
H         4.89785300663463   -2.67043655731209    1.33374883853503
H         6.00815136583897   -1.39769080862891    1.66857246065295
H         1.70000609860338   -0.67947187055742    1.45264870963218
H         2.47149418362209   -2.15602318347310    1.04143218711558
H         4.00961336556805   -2.29330088533586   -1.04582670510020
H         3.24015936953006   -1.41323010729325   -2.33254685183047
H         2.25120080076969   -2.57717484007069   -1.36974451144852
