37
 energy: -49.578674991735 gnorm: 0.132494102315 xtb: 6.4.1 (79825abcba525fcdf90b791dcacef51065a7a4e7)
C         2.10477445059805    0.64732138153930   -2.32375568655413
C         2.12552625296676    0.48322631704611   -0.79753267800212
C         2.75706913400353    1.82360573240107   -0.32503004858612
C         4.28661520313109    1.98098814760472   -0.45770050938443
C         5.02736449900723    1.12580405978917    0.58458219712309
C         4.23711384329774    0.72394543057517    1.82173086615945
O         3.06464337032821    1.55760279884549    2.09938473813984
C         2.29228016133631    2.09031811186656    1.08151504534233
O         1.14770793883791    2.49440852760208    1.28934077393871
C         3.76796478200485   -0.78025499786393    1.93651829073537
C         3.64362303024643   -1.25415448499914    3.51656990733064
C         4.85542548465384   -2.17825174734595    3.33336575941943
C         5.04074464019951   -1.80592364960155    1.89402007770282
C         2.53000980796745   -1.00665759181741    0.99578403472461
N         2.86915395549836   -0.70134066320469   -0.38677565042084
C         2.70876619382901   -1.83478603461449   -1.29403957123130
H         1.60338925315503    1.56699377488757   -2.64128597888112
H         1.52950417400972   -0.17853375805196   -2.76430179053863
H         3.14308001931829    0.69542841375361   -2.66099712879215
H         1.10909731244653    0.44068187080887   -0.39562847219829
H         2.22127191408430    2.57380688257274   -0.92256066707085
H         4.48765891062231    3.05090208393393   -0.29776296031435
H         4.55050496453605    1.63830354575356   -1.45975486707672
H         5.94920774850002    1.63940240397740    0.89891802964049
H         5.33500917954445    0.19776480048362    0.09499264732110
H         4.86584659753949    0.80062658976534    2.71619764796635
H         2.72742454158361   -1.76109465402767    3.83107081427208
H         3.79186264770768   -0.43656912331979    4.23577415652688
H         4.66961848674275   -3.24354628674135    3.48376776692423
H         5.80698898142111   -1.92404573170085    3.81191630261597
H         4.94640348894868   -2.55497557628257    1.07657038725257
H         5.89067016493386   -1.20136679946727    1.57827495738593
H         1.74045718659295   -0.32489050738368    1.34311659131290
H         1.94591125164215   -1.92805052613984    1.09145980436411
H         3.29747493204743   -2.64386355176221   -0.84071390326313
H         3.07954811652846   -1.57853801608532   -2.29145644299324
H         1.68057750828851   -2.19847503092085   -1.34601105516566
