37
 energy: -49.579633389808 gnorm: 0.144894130759 xtb: 6.4.1 (79825abcba525fcdf90b791dcacef51065a7a4e7)
C         2.26703315671523    0.69814196705169   -2.43703553575494
C         2.07099877252547    0.43219055081344   -0.93785081521985
C         2.56775841206224    1.73153428581225   -0.24239572497597
C         4.06757932832431    2.03029861494374   -0.45014303306435
C         4.90958663820277    0.96453559228688    0.27205879026435
C         4.38957663741675    0.71806640586775    1.68108890504128
O         3.32701073847123    1.64613308880152    2.07657500089062
C         2.26913213000845    1.90642266724728    1.22244888426595
O         1.26735679234551    2.42005711018641    1.72160014575536
C         3.85926320993922   -0.75980810105084    1.85587608668932
C         3.59153211521720   -1.03198890760635    3.46548547893279
C         4.87990040370129   -1.86627455879348    3.47318683514108
C         5.15447424284148   -1.74667297549943    2.00519771251810
C         2.59991933053213   -1.05261685883822    0.96307844876489
N         2.79520117683167   -0.73239061186292   -0.44370106269281
C         2.56084170865748   -1.96698088412749   -1.18829017962333
H         1.65966622686469   -0.03330488428425   -2.97934617058197
H         3.16800149981427    0.50221000567729   -3.03446349401770
H         1.89257603643678    1.69168078557459   -2.69546734680148
H         0.99904430515939    0.30224934797221   -0.76322638559697
H         2.06043381630179    2.53858783062329   -0.78848141231994
H         4.21933487349731    3.00325976536831    0.04080633583549
H         4.21168808953704    2.11591627112795   -1.52860757182927
H         5.98966812173304    1.15841367801172    0.36272595027353
H         4.82179540236669   -0.01122512112206   -0.21351693232018
H         5.10663529691234    0.91743224084705    2.48566074742666
H         2.68346806336953   -1.55684144836506    3.77414114318281
H         3.71833614010153   -0.06112276661462    3.96449975222953
H         4.62134311401697   -2.88677305612157    3.76254544993214
H         5.65071889376337   -1.63780679954966    4.21665556251896
H         5.00196624176662   -2.69024342036806    1.43544411365061
H         6.08528407786462   -1.32863071177630    1.62258684663349
H         1.73071652951570   -0.50699237302602    1.35756546612463
H         2.36512558506171   -2.11784257807266    1.06032036422299
H         1.53119434226517   -2.34946273152763   -1.17337381204494
H         3.25887689525193   -2.67875939797518   -0.73651487815829
H         2.89613772154708   -1.81388356333150   -2.21604525070417
