37
 energy: -49.585846991245 gnorm: 0.133822285684 xtb: 6.4.1 (79825abcba525fcdf90b791dcacef51065a7a4e7)
C         2.52657506327731    0.37193162082015   -2.45493460487778
C         2.09916939394542    0.35512518412525   -0.98056816454617
C         2.46886704810639    1.67383251110730   -0.24364435368256
C         3.93301631324768    2.13282744317219   -0.40939251552024
C         4.88104834858499    1.21776055889907    0.38451583442360
C         4.32575492691685    0.79439216709314    1.73689586518040
O         3.26970581856544    1.74232178186859    2.10152313744272
C         2.20252957340029    1.85370349770016    1.22681276752891
O         1.19073359017612    2.42417163607956    1.63591075982744
C         3.83521629511323   -0.70026264706938    1.88275464774355
C         3.77073288768408   -1.12597670655062    3.48000671378572
C         5.07289976921086   -1.91075805562517    3.26914099034087
C         5.07493806488604   -1.76137841886435    1.77837978671144
C         2.51637884372702   -0.98178663962625    1.07641499483014
N         2.73801087773738   -0.79351800060719   -0.35016925262724
C         2.42524614770601   -2.02916536898405   -1.06354451479696
H         2.24411359845739    1.33530843488566   -2.89097421570824
H         1.92856199571730   -0.29706044445031   -3.08887738545779
H         3.58509624042893    0.15563392641017   -2.61886368964222
H         1.01067386288811    0.29628456651237   -0.89012447393352
H         1.89942546393195    2.50513907714408   -0.68135308506810
H         4.04246946348036    3.15294315496333   -0.01177665562792
H         4.13517795342712    2.13074331508652   -1.48191748612778
H         5.79391058901435    1.79187590150430    0.60691046539916
H         5.06139706988619    0.33494585814413   -0.23492955840232
H         5.05560627383859    0.90484767656857    2.54706393349935
H         2.80850214826910   -1.62935600312752    3.60665633702425
H         3.89336021967308   -0.26906661503955    4.15701720207280
H         5.03182660864638   -2.95192389671271    3.59515348997078
H         5.89360542392075   -1.33944005861805    3.71539471433695
H         4.92369133869072   -2.62700687446740    1.09572699025801
H         5.99350621153688   -1.29576393912909    1.42201890305512
H         1.77358905614031   -0.25877587541971    1.44296426878389
H         2.24147177632056   -2.01917767236952    1.29444224127047
H         1.36799406708619   -2.04208858941319   -1.36143642892455
H         2.77677712626057   -2.86484170347154   -0.45031231359299
H         3.11302768508921   -2.14325370854628   -1.90383202619296
