37
 energy: -49.556626304466 gnorm: 0.153046211348 xtb: 6.4.1 (79825abcba525fcdf90b791dcacef51065a7a4e7)
C         0.95666789719040    0.43326650253441   -1.53974227120702
C         2.07638803894283    0.38406897566446   -0.49068514089543
C         2.82961489685907    1.73422075386387   -0.32197960483873
C         4.35371231787312    1.84160206467166   -0.53987439555536
C         5.14766506193990    0.91556297403833    0.39740529365458
C         4.36447886686157    0.64283284322113    1.67363447147047
O         3.27927948521021    1.56310521954254    2.02321178850805
C         2.58788054359246    2.27826245051792    1.06045176381228
O         1.84147202212136    3.18184383693290    1.43852734102513
C         3.92753572032001   -0.87405454661902    1.73711027901581
C         3.08123143931026   -1.01241585374411    3.15175862091037
C         4.22644784457156   -1.89252096532345    3.67125749518600
C         4.84926637380209   -2.09091681196669    2.32313896993632
C         3.09186526484995   -1.47404555512110    0.54949197217224
N         3.13438529319984   -0.61011322370290   -0.62162775890620
C         3.20545357282931   -1.39697106532605   -1.85018564877424
H         0.28079013615695    1.13852206740278   -1.04596726816719
H         0.46597156451118   -0.54970907808593   -1.54518127079284
H         1.23766976246112    0.84770510527272   -2.51103167886276
H         1.68756585100611    0.13644438136451    0.50126454085450
H         2.48004794471172    2.50222806503038   -1.02546447583302
H         4.68611772501911    2.83905498299076   -0.21536130150288
H         4.73005484018992    1.71040129661915   -1.55591382749619
H         6.11414360184496    1.36627681764590    0.67156127514117
H         5.50312157874898    0.01645302179738   -0.11333141942265
H         4.97423892397284    0.77727913521735    2.57439667716627
H         2.13186673077914   -1.55300654425641    3.10948349396363
H         2.88891691913198   -0.01102740905392    3.56152913408069
H         3.91056434054289   -2.80048466996948    4.18876786550806
H         4.94581293653356   -1.37122601552766    4.31146828038252
H         4.63560157198190   -3.06939736480849    1.83824085139432
H         5.91991510943270   -1.90706175352505    2.23673324459634
H         2.01888039610750   -1.63809566378960    0.72450802307666
H         3.57303439180010   -2.43942980689106    0.36028455987023
H         2.58776861050819   -2.30533591794469   -1.85539538403919
H         4.25657365589201   -1.67864728637661   -1.96760700003597
H         2.81966252044860   -0.89180003747437   -2.73794135071462
