37
 energy: -49.581062507330 gnorm: 0.136329654764 xtb: 6.4.1 (79825abcba525fcdf90b791dcacef51065a7a4e7)
C         2.38146141045677    0.38358203142025   -2.36542340634699
C         2.10493071102419    0.37377252929313   -0.85540716635992
C         2.83538743148653    1.60255749473469   -0.24283666714847
C         4.36817860851106    1.42977076316466   -0.29360899688577
C         5.02341423000130    1.55775788692188    1.09227996042533
C         4.09506289055319    0.94826504551184    2.13305160531685
O         2.92292235073660    1.82399611518443    2.21015531854996
C         2.27613517105455    2.16735768151176    1.03535386848938
O         1.35013187645424    2.97816595275650    1.07577700865097
C         3.76192684690158   -0.57511681825688    1.87962699315230
C         3.95443184082224   -1.48758497797914    3.24599020620582
C         5.22523981640653   -2.10400733469492    2.64511145476671
C         5.01697561026386   -1.45542624095964    1.31069922991932
C         2.41693805817346   -0.99229009942418    1.18267416096324
N         2.54727111111195   -0.88264645496632   -0.26325116290378
C         2.00123002412642   -2.08979228023666   -0.87822153628639
H         2.40507571033352    1.38983842921113   -2.79542380151734
H         1.68586984370821   -0.26950018625444   -2.91011548533957
H         3.36724401447093   -0.04637084562933   -2.55906666437934
H         1.05595549062611    0.63028464425239   -0.68128841497860
H         2.61214397424132    2.36159925085341   -1.00503168481603
H         4.77841630657459    2.16267433616063   -1.00443374378101
H         4.70586959922465    0.48595880027141   -0.72531173846898
H         5.12853596364956    2.60959017188806    1.40047395253074
H         6.03929510465909    1.18106004336709    0.94502222678211
H         4.46644374764510    1.01161437762868    3.16228376583021
H         3.13827888053131   -2.18252033670451    3.46111349789044
H         4.15182950273745   -0.85437013396607    4.12220290591048
H         5.09859885253589   -3.18436633621057    2.55138868152013
H         6.14634620655579   -1.78118505790104    3.14155199311234
H         4.84159774966308   -2.15031817161096    0.45948195330913
H         5.88684448275860   -0.81030387480751    1.18944476896571
H         1.68821237368686   -0.28347263606766    1.60145368923443
H         2.06634441850953   -1.99821918476039    1.43660468132689
H         2.39698618148951   -2.94851191929651   -0.31905589420624
H         2.43246927984710   -2.15199316158809   -1.88228650196354
H         0.91114537493890   -2.13745168953260   -0.83838771113946
