37
 energy: -49.585987444198 gnorm: 0.146343968399 xtb: 6.4.1 (79825abcba525fcdf90b791dcacef51065a7a4e7)
C         2.19466688783734    0.40607096864634   -2.41407748032734
C         2.12763317593715    0.40100973771983   -0.88039062931138
C         2.87727412525610    1.63200458717860   -0.29608569145451
C         4.38393573238874    1.29756079156994   -0.29623881881550
C         5.03026963160839    1.59920631413162    1.06672306388796
C         4.14369736040931    1.06296787567661    2.18160480289321
O         2.86047442899372    1.76960959232785    2.20916800159734
C         2.29069442287208    2.12623634625684    0.99897902047858
O         1.29183997821532    2.84097242839664    1.08824444243398
C         3.80134711264528   -0.46234435552451    1.95331799416639
C         3.95666323522164   -1.37063673583111    3.32717628032296
C         4.89647289788897   -2.34540459420828    2.60428616171402
C         5.04653613258967   -1.39721379504572    1.45402417747314
C         2.52354000314248   -0.90162694358359    1.15143805982113
N         2.68106403648262   -0.81301228430339   -0.29322179374083
C         2.31859261807516   -2.08628565366392   -0.91042505600129
H         2.14769702703493    1.39744733988550   -2.87557139566632
H         1.41039836833865   -0.23718722277110   -2.83620928275279
H         3.12929558516633   -0.03813011913200   -2.76518874483264
H         1.07102949080238    0.44799643304872   -0.60138217325566
H         2.57866273959992    2.44932000584439   -0.96671973089212
H         4.92324634121886    1.97407897363224   -0.97607825297262
H         4.59468984103190    0.28572572727347   -0.64688962759494
H         5.05680762588199    2.69548441431535    1.16599708552322
H         6.05491091313429    1.23255378124706    1.17291260831823
H         4.39295752401729    1.22753128804921    3.23613975721350
H         3.01172651782953   -1.79111745208532    3.68159044828069
H         4.43292892377129   -0.86732794941935    4.18012811168735
H         4.37680606652542   -3.24133150752490    2.25894746820084
H         5.83659069746106   -2.58327319843535    3.11291319674437
H         4.83177263470156   -1.90362061337900    0.48674354650306
H         5.98951100817690   -0.85790776039915    1.36739421967379
H         1.64748119181667   -0.32500512084483    1.48138932709569
H         2.32369063270443   -1.93401805685718    1.45724642634754
H         2.71145197988125   -2.88156045682199   -0.26243734138162
H         2.85216034395025   -2.00807336574800   -1.86288031566360
H         1.25374846978911   -2.09373384913636   -1.15165971322898
