37
 energy: -49.571608175254 gnorm: 0.131674739808 xtb: 6.4.1 (79825abcba525fcdf90b791dcacef51065a7a4e7)
C         0.95119773857318    0.46118645236471   -1.20088646070936
C         2.18225009020513    0.43111079545950   -0.28419673971594
C         2.86860659981360    1.82595059635899   -0.32957078429407
C         4.32636527561786    1.65459492228637   -0.80649714121814
C         5.14125980727753    0.92465738416276    0.27495589790944
C         4.49669699140053    0.62717322806538    1.62127132346599
O         3.55851613116482    1.67547645720016    2.03071032309370
C         2.79943648628668    2.34059890333100    1.08318751273632
O         2.07962031516933    3.27441244821190    1.43869154830341
C         3.92519001186725   -0.83333868535517    1.81148327984434
C         2.70476940738666   -1.15343171861184    2.88139854297008
C         3.57970902941901   -2.28942480906948    3.42910745890707
C         4.83006592947711   -1.66308680007390    2.89152423971829
C         3.62043707752446   -1.51786295432697    0.43042436054071
N         3.15029724545247   -0.61008659287585   -0.60621397849897
C         2.99625262683136   -1.34169389835750   -1.86103327040580
H         0.13027287802351    1.08961996237752   -0.84149307554491
H         0.53224100045958   -0.55190363603726   -1.27283918225912
H         1.32594298218437    0.68221783003087   -2.20330137537667
H         1.78326808117296    0.29360337901411    0.72494639957689
H         2.31876695738113    2.38118689855666   -1.10178336563526
H         4.70632647811712    2.67400030899740   -0.97128965089216
H         4.45082938012066    1.22960722769753   -1.80403291366299
H         6.08529669563064    1.47180099850572    0.42264972455693
H         5.34095222273838   -0.05536701948116   -0.16694359110628
H         5.21303031135305    0.83457692345577    2.42445621935434
H         1.72881892345776   -1.43130009141735    2.47442355714268
H         2.65203435825715   -0.33535916799331    3.61328096164461
H         3.29678608618863   -3.21152229028383    2.91755266676960
H         3.54023852470327   -2.48863697336521    4.50514695730195
H         5.65290764296604   -2.31830269307680    2.52844480263843
H         5.29081002325198   -0.95790437513006    3.58289243959706
H         2.95618541800925   -2.38555541947632    0.55174667746345
H         4.53987870955087   -2.02215303783141    0.11481619727143
H         2.43744687520030   -2.26614503119575   -1.66149681081649
H         4.00759900178915   -1.60897814831864   -2.18308968694809
H         2.56215827882568   -0.65672915057590   -2.59214754599263
