37
 energy: -49.575907538950 gnorm: 0.166497856157 xtb: 6.4.1 (79825abcba525fcdf90b791dcacef51065a7a4e7)
C         2.11131630020140    0.61491684305870   -2.45485632598154
C         2.15438529095766    0.41009392340951   -0.93403184312958
C         2.60066090160441    1.73303361272313   -0.24891085787352
C         4.08010484937693    2.06270744075801   -0.53950103021395
C         5.04560921697928    1.11850327701462    0.19716879919416
C         4.47831612344117    0.87129946179280    1.58770544520010
O         3.42548477773987    1.73340597915503    2.13091981814036
C         2.38298602470808    1.88445999080170    1.23271699317007
O         1.32146860651036    2.19375349655716    1.77497568185619
C         3.91871357618879   -0.57946163865212    1.86704966278309
C         3.54037093658902   -0.93298217255822    3.43819091204203
C         4.48754715890537   -2.14017017815689    3.39896046133936
C         5.07756159106506   -1.71127716503994    2.09028893960535
C         2.73976700968785   -1.09361103792374    0.96454923161816
N         2.88679274645078   -0.75054908669794   -0.44271776312196
C         2.59881548135982   -1.99978842217307   -1.14273250710732
H         1.59333240597431   -0.19688992199267   -2.97511815439231
H         3.06921468146037    0.73723646562874   -2.97880485704704
H         1.45459529509620    1.44957162567747   -2.71213718290618
H         1.11596735111109    0.33316996637721   -0.59901587539388
H         1.86989901268578    2.42991108285662   -0.68166034870330
H         4.17260999876069    3.04589789278859   -0.05422401928394
H         4.39930365354161    2.17803064989434   -1.57680337773421
H         6.04096331367449    1.57790513451415    0.30015142632780
H         5.05891817591970    0.14896751307702   -0.30822543815079
H         5.24666592409922    1.02149822374145    2.35473519611329
H         2.46899754962976   -1.12660258531727    3.53813610123332
H         3.86543624462283   -0.08995490409653    4.06374118429229
H         3.95416601614665   -3.08926439163936    3.31697147466400
H         5.09688561285951   -2.26836115599323    4.29972576518648
H         5.06490549503675   -2.43437688480961    1.24461189493765
H         6.07206955221424   -1.28819368703551    2.22997305605345
H         1.85862055722293   -0.55140404373526    1.33661390041914
H         2.62806094020792   -2.14418113878232    1.25284448290648
H         1.72865004725690   -2.43300139629101   -0.63104197144350
H         3.40520061618416   -2.72482998128738   -0.99427224479591
H         2.49075235813128   -1.94169396693645   -2.22767033364232
