37
 energy: -49.558967737223 gnorm: 0.132062843999 xtb: 6.4.1 (79825abcba525fcdf90b791dcacef51065a7a4e7)
C         1.06068939516077    0.38943249900483   -1.69557288116090
C         2.05052300740151    0.35745117493260   -0.52257625470715
C         2.71378008116483    1.71071493210317   -0.13853278963230
C         4.15856560261478    1.93459445502377   -0.63285519725850
C         5.14783887743513    0.91717120029075   -0.03906152932873
C         4.70555381618620    0.53867621274421    1.36722747937975
O         3.94909773616471    1.64809227014082    1.95351541376538
C         2.72607188292465    1.89767481853969    1.35492907346526
O         1.81450193529832    2.37424049540249    2.03201960242070
C         3.97951273789635   -0.79978219381635    1.78828490255914
C         2.92867186134986   -0.69828238929576    3.06187665542623
C         3.76550692582413   -1.74858567403073    3.80521694671475
C         4.74840478049127   -1.92752513772275    2.68871353392309
C         3.19462744837882   -1.45611815987545    0.59582954284522
N         3.09637692875334   -0.65375484173821   -0.61506615272283
C         3.30998724618383   -1.23373991281860   -1.93852313995016
H         0.18863704671888    1.00241534256438   -1.44700368885358
H         0.65214729423974   -0.63042377005220   -1.68924725717702
H         1.46114866716809    0.73156651549322   -2.65301802621391
H         1.44838852480976   -0.00623560095117    0.31505780181212
H         2.06398422284270    2.51356836701416   -0.51285214548880
H         4.40514605685937    3.00238112986425   -0.53414286172282
H         4.11718777983862    1.88715999247533   -1.72245206604310
H         6.13493206792103    1.39910760424940    0.03689634225779
H         5.18467270828321    0.07880541605196   -0.74005092133261
H         5.64945637595297    0.57868253667965    1.92283810163209
H         1.91703976866631   -1.07963016945887    2.89910931205374
H         2.95755978187132    0.21240413583561    3.67627969975584
H         3.25145782133839   -2.69426660095155    3.98807909476385
H         4.18113784054496   -1.31829642456482    4.72239005736606
H         4.59805026090211   -2.88453145384568    2.14123251087011
H         5.81049504704117   -1.71825485635736    2.81412315754516
H         2.17372978244105   -1.52709481602410    0.99778710150101
H         3.53361405069076   -2.47100655998447    0.36263533356435
H         2.49390646461508   -1.80918927201091   -2.39629901391782
H         4.21829780221913   -1.81416702724897   -1.74863107004808
H         3.59510776415449   -0.47009911988279   -2.66495394804682
