37
 energy: -49.580128846044 gnorm: 0.132879145138 xtb: 6.4.1 (79825abcba525fcdf90b791dcacef51065a7a4e7)
C         1.85581884429353    0.58011944054874   -2.31737195024558
C         1.92790231741049    0.51159807724753   -0.78543745965100
C         2.76940289631943    1.72769240935181   -0.30407120529080
C         4.27685045708186    1.49238275008232   -0.53669335871485
C         5.08550010393474    1.47276116811664    0.77178030638929
C         4.31910486996944    0.82879741533597    1.91828469767528
O         3.10560937738209    1.61630979193865    2.15069866685668
C         2.33339533093070    2.07027104437219    1.09523957412817
O         1.39271636345204    2.83674746695758    1.30538987847261
C         3.90241793165983   -0.69458044814964    1.87843790100397
C         3.67091678668908   -1.28057693928291    3.40801955707801
C         4.94947903629327   -2.11058806845012    3.22817295225703
C         5.12259063090770   -1.77844596658231    1.77751744841811
C         2.60973783994838   -0.96331142815238    1.02665542010306
N         2.58139378107463   -0.73652417713874   -0.41121542504098
C         2.56619242854959   -1.97076206677489   -1.19222514005752
H         1.79871473037202    1.61657614661101   -2.66451245173863
H         1.09953806013000   -0.04490793934929   -2.81177423215603
H         2.80571175590168    0.30420070109406   -2.78180368114974
H         0.89493927755089    0.59048292196212   -0.43439709895589
H         2.44612344121044    2.57383379761171   -0.92572899007920
H         4.64337772631562    2.19923271872542   -1.29612426680048
H         4.44404691749707    0.51887885233736   -1.00093357855323
H         5.24006975197758    2.53795204561193    1.00386191803267
H         5.99345431583946    0.93189759374069    0.49127043684491
H         4.87446393753903    1.03681934212020    2.83999987998933
H         2.74003627303320   -1.85358650345195    3.42900390519606
H         3.69547583793917   -0.49051174134698    4.17147839590394
H         4.90003608564032   -3.19841005883179    3.30688872585153
H         5.75609278650142   -1.82971735997565    3.91343955121341
H         4.93444200614640   -2.63351229536242    1.09073895574174
H         5.98399247651452   -1.29465805116396    1.31763325739983
H         1.76323199926416   -0.43905769515570    1.49294446359048
H         2.40427461701018   -2.01616853029801    1.24703397368303
H         3.18898600376633   -2.66480939723901   -0.61160906444803
H         3.03217169656592   -1.91437961113320   -2.18099560111393
H         1.55998707512291   -2.39129863604857   -1.24553990040613
