37
 energy: -49.570659978565 gnorm: 0.141769290921 xtb: 6.4.1 (79825abcba525fcdf90b791dcacef51065a7a4e7)
C         1.16313620340581    0.28806385393911   -1.83935714219691
C         2.05627979263740    0.42274298957065   -0.59803907918976
C         2.67880478108843    1.80965316560169   -0.26991573963336
C         4.16412328920651    1.89772942440764   -0.67973689459476
C         5.09342988129667    1.05077042954778    0.20652058131297
C         4.63083563105572    0.63613592534316    1.59598381670533
O         3.63640562850189    1.62051281361820    2.03058067379771
C         2.61318843820693    2.06648786843862    1.21172653781581
O         1.72687754511276    2.79703477741245    1.65588912301403
C         3.92593083145460   -0.75211727205187    1.86386101461578
C         3.07372769991298   -0.86274462564424    3.27740836920885
C         3.79587113860208   -2.19283648280136    3.53304328933742
C         4.86994366928542   -1.91075271810403    2.52731750786943
C         3.12729599768372   -1.41147598496583    0.68225190107533
N         3.13428985840403   -0.55289956580212   -0.49354828666908
C         3.33694252329396   -1.33067347958115   -1.71319991878664
H         0.43315096911747    1.10339169360241   -1.85864397612972
H         0.66251456436764   -0.68521198756549   -1.74362010614675
H         1.69667663629092    0.32774585859819   -2.79218685765679
H         1.34864766990939    0.21107827961584    0.20875683408527
H         2.15279031884314    2.61845400670502   -0.79534246792949
H         4.43821626324663    2.95659982900836   -0.55981633574791
H         4.42395560250018    1.60895082631840   -1.69967687812385
H         6.00787559048444    1.63927621086405    0.37924941490307
H         5.38349270876865    0.17016976481496   -0.37313972583215
H         5.43539772361513    0.72889401519411    2.33444944001621
H         1.99166004740009   -0.84931004266412    3.12162666535979
H         3.48094553940007   -0.02638426347775    3.86251566480747
H         3.17639929945411   -3.07757444541359    3.37338477356462
H         4.05322256665481   -2.32395245135690    4.58930237539823
H         5.02190560272818   -2.76451930496520    1.83004193470590
H         5.75138539754516   -1.58195331483793    3.07732549842223
H         2.08095244434637   -1.53671343373017    0.99581266953025
H         3.57873179330943   -2.34535250985456    0.33101083195944
H         3.54582237306440   -0.74836204106513   -2.62092849198877
H         2.47177918249076   -1.96868091761880   -1.91916496465167
H         4.24958708281244   -1.89505904315121   -1.51147847586019
