37
 energy: -49.578378155627 gnorm: 0.145307268641 xtb: 6.4.1 (79825abcba525fcdf90b791dcacef51065a7a4e7)
C         2.37238028761799    0.52734307429855   -2.45704240238763
C         2.19793848644533    0.44118369268284   -0.93426168808790
C         2.60607858668096    1.77178415489681   -0.24025435511206
C         4.11462468684442    2.04796185957091   -0.41316014252935
C         4.98314179634123    1.05017648712229    0.37201817981106
C         4.37560064281575    0.88088869234331    1.75721084517160
O         3.19750667591532    1.66061978128983    2.14564018827526
C         2.19971854735892    1.85757073425554    1.20648182108570
O         1.13553136636404    2.32550525151570    1.61276879945376
C         3.88911797449772   -0.61300537421048    1.92307550310121
C         3.65684653716658   -1.21089370876901    3.44793098531832
C         5.04200626659823   -1.86910174114814    3.38406070581357
C         5.04978387029860   -1.76430885742671    1.88952219698843
C         2.68802041538084   -0.94804413417125    0.96710202092090
N         2.85083562337492   -0.77643699661869   -0.46947399629941
C         2.31446962346190   -1.93684926052195   -1.17608942140474
H         1.93674467730220    1.47279832788891   -2.79519309496157
H         1.70509823241517   -0.20606436040053   -2.93022488729413
H         3.41253524075330    0.33152399453063   -2.72880900654679
H         1.12083447718303    0.48153705427261   -0.74802696517954
H         2.03408547066296    2.56700918712554   -0.73761165888791
H         4.19091023394408    3.04280377179446    0.05071971576196
H         4.30456482617691    2.07416535808707   -1.48759934756956
H         6.03058156163284    1.38461314918079    0.43039041554893
H         5.02702158045385    0.12460931352347   -0.20849885159566
H         5.11388732777221    1.15926768076275    2.51792999098268
H         2.87733384271862   -1.97741508440215    3.43680553605026
H         3.36928004530019   -0.43674270456963    4.17296291524652
H         5.22880600232199   -2.82744040381232    3.87262014589222
H         5.71733729331828   -1.13185446090244    3.83071366186553
H         4.68395977836230   -2.75200735561104    1.53059678364333
H         5.99662634911686   -1.70527301910505    1.35327464064740
H         1.87621945680882   -0.40066559594266    1.46729752612570
H         2.38124498922179   -1.98780475447553    1.12226846523432
H         2.60325256012072   -2.85682839456266   -0.64984672458357
H         2.77457896756431   -2.01900644386548   -2.16580265607628
H         1.23036782106399   -1.83993010171855   -1.26253393150855
