37
 energy: -49.568645684068 gnorm: 0.129658602884 xtb: 6.4.1 (79825abcba525fcdf90b791dcacef51065a7a4e7)
C         0.94958704475234    0.40107158211972   -1.15826671724864
C         2.29464794139266    0.30542742746681   -0.42452435124590
C         3.00616739968284    1.68458057768271   -0.32254995090511
C         4.52695933791368    1.69020110311013   -0.58530872148187
C         5.31535993939299    1.38388567760901    0.69960293021026
C         4.44829859815173    0.77468382529680    1.79212341673484
O         3.33810537353057    1.69297566044835    2.05853362956335
C         2.67045921213848    2.30067701151795    1.00908761409188
O         1.87566516782413    3.21687771325078    1.22217183910374
C         3.98977411931811   -0.73676521324790    1.75787480581451
C         2.81635706379255   -1.03247688810174    2.88581616566811
C         3.61615699615591   -2.30085973907454    3.21370291365592
C         4.89249344098490   -1.80378044151698    2.60660749003179
C         3.69107624921497   -1.48027691947122    0.40630480200224
N         3.21749317579223   -0.76814243951777   -0.77195322498701
C         2.66567765308871   -1.55960688009338   -1.86859998555324
H         0.46643488071307    1.34711317859240   -0.89448803003403
H         0.33401377311910   -0.38833937949508   -0.70554897639393
H         1.02450340808640    0.26481001976783   -2.23990660621275
H         2.06637998870573    0.10023822902836    0.62535943211041
H         2.54935291773349    2.21175945120199   -1.17127030017734
H         4.79121202772370    2.68763199156255   -0.96742986918378
H         4.72193184299300    0.95922256209108   -1.37197229715726
H         5.76091293352667    2.34604371417154    0.99645254837685
H         6.15902064930379    0.72215399493065    0.48524848361734
H         5.03223357188245    0.80005718241265    2.71928674696028
H         1.76984068352158   -1.06371623813374    2.57094096335658
H         2.99523597146405   -0.31789368133970    3.70132137237693
H         3.22340883488858   -3.12510604640118    2.61506748900753
H         3.55630194721134   -2.64431901819457    4.25175758917254
H         5.54510529292445   -2.49831310990417    2.03221635404308
H         5.42001859775097   -1.23449398151233    3.37158297847052
H         2.96470827962584   -2.29225889186858    0.55434006060655
H         4.62921712016204   -2.00566299382442    0.19857637572567
H         2.65067105994040   -0.93185965343516   -2.76993055010252
H         1.66031820900763   -1.94263519386779   -1.66729327832616
H         3.30950047347427   -2.39549257368235   -2.14954477263877
