37
 energy: -49.586264159005 gnorm: 0.124336046033 xtb: 6.4.1 (79825abcba525fcdf90b791dcacef51065a7a4e7)
C         2.35434059702168    0.57615222432125   -2.46907638782736
C         2.15537956439936    0.57148153192282   -0.94687168315371
C         2.99093729316576    1.70973735667839   -0.29499818758293
C         4.51405298547511    1.46127433222148   -0.27867208186340
C         5.11901138108928    1.60865774902973    1.12799278593117
C         4.21782514398819    0.86440546411990    2.10291595450772
O         2.95881416428131    1.59864763844583    2.25305952059423
C         2.35993908556281    1.93874190840824    1.05219576137051
O         1.20995933249161    2.37923696917954    1.05826548967687
C         3.81434423588340   -0.63939433023910    1.83517501987491
C         3.76052983335930   -1.44868116371959    3.27696679945763
C         5.11637236551358   -2.09866563364743    2.96842844253447
C         5.07156686631553   -1.64296083560548    1.54188962728848
C         2.47686892529857   -0.80799553855793    1.02801644558587
N         2.53956103222319   -0.73412983765971   -0.42467828389058
C         1.85792524117398   -1.87674461031995   -1.02746728233944
H         2.40860436564740    1.59031187471388   -2.87717631751611
H         1.53527550764743    0.09615481947612   -3.02205770405418
H         3.23268643342655   -0.02912728133907   -2.70628902553919
H         1.09851208896417    0.74627853093761   -0.72564341860068
H         2.85462640958059    2.55130977327009   -0.98788956450900
H         5.09932151628409    2.08323627121498   -0.97245771503668
H         4.62082929713229    0.41548064831610   -0.57209646461276
H         5.21422753622383    2.65782391665849    1.44825748875947
H         6.14256645120257    1.22403843306092    1.12624963183949
H         4.56013372173042    1.02482384864638    3.13167562838183
H         2.95884399446922   -2.19201911914799    3.26876130977006
H         3.79648468067150   -0.83160978907388    4.18559528492152
H         5.21070035824838   -3.17371665866726    3.13385208767354
H         5.95446887097917   -1.65914767769366    3.51935731492528
H         4.88110770148880   -2.41330389977806    0.76182559724491
H         5.99247564652065   -1.14629304060563    1.23724973569430
H         1.61826972287627   -0.22204015920755    1.38621090810337
H         2.24795101393202   -1.83925871393605    1.31677721032860
H         2.42044986165522   -2.80117785812746   -0.83858164618412
H         1.69391486647152   -1.72257467541623   -2.09859515516674
H         0.86188257719448   -1.92093788985747   -0.58239576340385
