37
 energy: -49.576713346695 gnorm: 0.146575476506 xtb: 6.4.1 (79825abcba525fcdf90b791dcacef51065a7a4e7)
C         1.96883859397590    0.45765796187959   -2.31073095763216
C         2.07732646300593    0.39625172773207   -0.78064137313675
C         2.68268059955658    1.73954456242708   -0.28281326552523
C         4.18254302617503    1.97583038438884   -0.55933375358523
C         5.01642982215946    1.14038751208780    0.42710966918463
C         4.41838577772395    0.86936311963808    1.80021287982700
O         3.34376508674131    1.81151535724301    2.12317240647416
C         2.40870609548266    2.11548374803038    1.14866886140670
O         1.34088324638688    2.64117049626534    1.46479223351841
C         3.81669663991993   -0.58345993114516    1.95243414007777
C         3.65624993311126   -1.10176329612534    3.51519554384297
C         4.53901359155301   -2.31901367361601    3.20695124791009
C         5.01475995815945   -1.69607718440537    1.93011808586833
C         2.59244956928388   -1.02289709259458    1.07102293971414
N         2.75748517798957   -0.82306314128956   -0.36164523134989
C         2.70389407771913   -1.97016553609896   -1.26432708792925
H         1.62392231218830    1.47216363270358   -2.53393695189758
H         1.31021080564128   -0.25109255624390   -2.83124570541674
H         2.95860271243400    0.46932614148473   -2.77371623679857
H         1.02490772138713    0.46015331239369   -0.48944352427892
H         2.17474036687864    2.44496423492490   -0.95460420911956
H         4.44126298868669    3.02978985636785   -0.37781834204104
H         4.40884972182437    1.87706408083928   -1.62244897568120
H         6.02362468153188    1.53717178774206    0.62837073930265
H         5.24535388984416    0.21051094461687   -0.10064348959532
H         5.13513775732046    1.06062887335666    2.60702123368731
H         2.62922462970601   -1.35257497333685    3.79381959673929
H         4.10817308181606   -0.44263939633157    4.26951425547397
H         3.86390697406413   -3.15024839080156    2.99416646543877
H         5.29815752412948   -2.71213185519714    3.89124869451310
H         4.99252231808036   -2.41104638317428    1.07775221727486
H         6.02803276484127   -1.32109659675079    2.07233320937711
H         1.75594145025403   -0.44447697528750    1.48878356183330
H         2.40838018066373   -2.09132938962570    1.22549241344577
H         3.49832292684023   -2.66414105246677   -0.95778288177577
H         3.06898971127518   -1.69366262593830   -2.25842668612822
H         1.77386621357945   -2.53162491320089   -1.15499169535109
