37
 energy: -49.560664766293 gnorm: 0.159363585280 xtb: 6.4.1 (79825abcba525fcdf90b791dcacef51065a7a4e7)
C         0.92111151326328    0.34677252135329   -0.99877362445940
C         2.26857179579043    0.34973632136181   -0.26320821084543
C         2.99805479657102    1.71375874114398   -0.42451390302330
C         4.51602445997672    1.54818738479897   -0.64864804399447
C         5.24956099396341    1.27556061593152    0.67573913245577
C         4.36291916414548    0.64716791276525    1.74134325244265
O         3.24788756739719    1.56506432446012    1.98819139527111
C         2.78118845359632    2.32872919814154    0.93206773757257
O         2.20461595468156    3.33684796369115    1.34168573273092
C         3.90666385529316   -0.86499097836819    1.70814045838694
C         2.69819731428257   -0.99976650514156    2.82976822225782
C         3.56034353582746   -2.11324680827554    3.44038284144205
C         4.80221148156464   -1.86754317394351    2.63908318990293
C         3.74915810083401   -1.53005825406003    0.29334401553932
N         3.14818205737320   -0.70734803479396   -0.74669641403194
C         2.81347969124299   -1.43893165441148   -1.96583962175948
H         0.26705675573193    1.09693259997798   -0.54327154938108
H         0.44234401075287   -0.64178475092601   -0.97449064174692
H         0.87100347869411    0.74502410569255   -2.01514431485857
H         2.08530080336089    0.25682954051015    0.81114968115560
H         2.62172759868819    2.48062964195674   -1.11531787149482
H         4.96822705903388    2.41712517636931   -1.14982101881735
H         4.61562866808312    0.60256186439332   -1.18442305777422
H         5.44133117063929    2.30036628756058    1.02983346158288
H         6.16757109208816    0.70498223800902    0.51051864812027
H         4.96292368837494    0.75850520929800    2.65175759207111
H         1.68944072141249   -1.26588854122962    2.50280031178912
H         2.75868880434226   -0.09286213453235    3.44745811293285
H         3.14169380028131   -3.09799995593828    3.22360853163810
H         3.80179791344211   -2.08243299106468    4.50802262368623
H         5.11840023350667   -2.64836732797674    1.91207469096027
H         5.60023194018208   -1.25551952098629    3.05878279358395
H         3.20820427166598   -2.48435525642768    0.36767944838463
H         4.76899699847469   -1.72900693229839   -0.05254318930278
H         2.00818525094919   -2.17055875571233   -1.81447514690296
H         3.69340683965799   -1.97473632312952   -2.33546681091545
H         2.45324537860420   -0.80684530688654   -2.77998995906110
