37
 energy: -49.582711614961 gnorm: 0.143525694870 xtb: 6.4.1 (79825abcba525fcdf90b791dcacef51065a7a4e7)
C         1.77220147974381    0.55919378673481   -2.32443505484913
C         2.11970887156636    0.44008597152903   -0.83387596142579
C         2.92391130278845    1.69109206571367   -0.37894264930689
C         4.44733958793594    1.45618378647898   -0.45553382760671
C         5.10997580496969    1.53689432346407    0.93039605532145
C         4.20915481515817    0.95011512979351    2.00777017958386
O         2.95555135929599    1.69768729198079    2.13574491342376
C         2.35062997865590    2.09062402875092    0.95419504462407
O         1.34176361815668    2.79155218430769    1.04030291658251
C         3.88328071954778   -0.59479389422848    1.95338221726260
C         3.82781417661443   -1.36311730015153    3.41735192146045
C         4.95128984179618   -2.32058139718213    2.99657926489892
C         5.12334831982050   -1.62516294586651    1.68072347986883
C         2.63892550048079   -1.00325633962394    1.08533263487038
N         2.75207867395719   -0.78052939163146   -0.34899560167115
C         2.31916782232867   -1.92837415002344   -1.14183294600413
H         1.06006747137925    1.37633966481102   -2.47657866092488
H         1.29819870971022   -0.34016063220612   -2.74101214044550
H         2.70626542144801    0.76404235981188   -2.85328866382820
H         1.17584418469969    0.49465711373134   -0.28377937600495
H         2.56521319947790    2.49779812450718   -1.03276545464245
H         4.99002659304378    2.26176645895013   -0.97248817735961
H         4.60062849598239    0.49236656799287   -0.94414651313379
H         5.18878328335107    2.59258412145388    1.23320571055510
H         6.11400418173200    1.12918598342435    1.07634455192879
H         4.63188542131459    1.06392421504232    3.01255972247944
H         2.87827791904317   -1.81383567650650    3.71827161515807
H         4.05247185266046   -0.66166009276237    4.23292673268313
H         4.56626934789875   -3.33674470058129    2.89089663006390
H         5.87554657322054   -2.21374005616870    3.57402088979054
H         4.89972484436684   -2.20091680198220    0.75514092095884
H         6.10607773662916   -1.18278186959131    1.51917093478949
H         1.77382910395626   -0.44255717400004    1.46751617760100
H         2.25569692315760   -1.99956104744129    1.32987852848176
H         2.78635403772479   -2.79935564247030   -0.66244078278952
H         2.75971472931717   -1.97123111172881   -2.14286461140225
H         1.25752901095244   -2.17254154548416   -1.21564353448877
