37
 energy: -49.575541458781 gnorm: 0.143945901442 xtb: 6.4.1 (79825abcba525fcdf90b791dcacef51065a7a4e7)
C         2.23310283070372    0.59438212972783   -2.45325225537389
C         2.10190242718692    0.40342097923084   -0.93567696618187
C         2.50788207980112    1.73755116522335   -0.24720094716882
C         3.98400285082204    2.12687357876751   -0.47386674860419
C         4.91244850562783    1.12593737982688    0.23501828041354
C         4.43611686956721    0.71936558991540    1.62222080139766
O         3.36258953564895    1.59129997280218    2.10599016703702
C         2.32604319589566    1.89169738345713    1.23897094860260
O         1.37939805681255    2.47529523133313    1.76793474345518
C         3.83599646018321   -0.71316264906022    1.91138206767060
C         3.56567187252734   -1.09524842227068    3.49805776632595
C         4.81470990057758   -1.98723413129931    3.48224016884346
C         4.95338113823433   -1.90421290154679    1.99275530736237
C         2.57391055751077   -0.93179581531144    1.00137641193481
N         2.83047836289607   -0.74906412164511   -0.42006318212256
C         2.73555391361213   -1.99481742623151   -1.17679198860844
H         1.94128631796590   -0.27679793792679   -3.04814579075794
H         3.31711014116395    0.71763518651017   -2.58282966350827
H         1.56931609744442    1.38457658263122   -2.81256329276852
H         1.01399593222144    0.29892978455670   -0.89089038004999
H         1.92556801196168    2.49400722609089   -0.79089921548125
H         4.08500182960403    3.13726285444566   -0.05004231995833
H         4.28682665473492    2.23337348676650   -1.51700575415505
H         5.90550864908476    1.60154887938599    0.23825904572228
H         4.84280692022794    0.23522243818313   -0.39536016919153
H         5.29675247052877    0.88453611206691    2.28046145144229
H         2.56272572923275   -1.49016220144728    3.68098115330335
H         3.71485602433365   -0.21959138458552    4.14508512357123
H         4.72934024873323   -3.00647770078486    3.86414595186113
H         5.69553796796286   -1.62874494056559    4.02513226032302
H         4.60288316701757   -2.78891852217228    1.41599697795826
H         5.90914583153433   -1.67629460570121    1.52145449862750
H         1.88726819197888   -0.13274331246429    1.31582348068797
H         2.14058230889666   -1.85877632739893    1.39153493829417
H         1.69180798093016   -2.28044528829068   -1.36573565786941
H         3.32871908199738   -2.78201161124911   -0.70091060972036
H         3.13215985656914   -1.98000386856346   -2.19395813422346
