37
 energy: -49.581021074329 gnorm: 0.128585526903 xtb: 6.4.1 (79825abcba525fcdf90b791dcacef51065a7a4e7)
C         1.90653636611195    0.56288353460409   -2.29077840002877
C         2.02600370377897    0.42481027572476   -0.76651535614052
C         2.77864940389547    1.70806588974068   -0.31319250929286
C         4.30474658421340    1.74524631550743   -0.54018778571607
C         5.11998998650921    1.33911897138976    0.69950627042840
C         4.31561413303709    0.91505513373274    1.92002772953194
O         3.16242023338359    1.78796930618189    2.15439490772356
C         2.33109141427423    2.05745948206589    1.08077640769112
O         1.21745119835022    2.56347556958973    1.22318204233917
C         3.86784259341067   -0.59993083477514    1.93465857877056
C         3.64879529607296   -1.23730032458501    3.44541439090009
C         4.76358792753104   -2.26394624815269    3.20206231034389
C         5.06773248791082   -1.70716145649974    1.84479513870974
C         2.65018903747155   -1.00140500494715    1.02641307200474
N         2.81299936522984   -0.74540481073179   -0.39754800668015
C         2.56377117116767   -1.94183840858381   -1.19753701746551
H         1.74100722192133    1.58391914891325   -2.64868381758989
H         1.10629783211226   -0.06001445850458   -2.71347196492870
H         2.81355042741126    0.24716264693983   -2.81209437239581
H         1.01393025929759    0.44695501393634   -0.35217037330976
H         2.30491131226101    2.46380547291206   -0.95456070862165
H         4.63957574499072    2.75152287721581   -0.83346467686047
H         4.55652749388479    1.16691199893441   -1.43087250115493
H         5.76000253207368    2.17529205565835    1.02135059286717
H         5.72547231773882    0.49458150092526    0.35928920365511
H         4.89904833767894    1.09715433678169    2.82980798093214
H         2.69444895380293   -1.72332991804372    3.66522594553778
H         3.85216370713092   -0.51528972307300    4.24854423265262
H         4.30360244478434   -3.23419119490399    3.00448811994823
H         5.66457828047825   -2.36846553542509    3.81557393239539
H         5.05762140451041   -2.42266625425110    0.99264862329326
H         5.99482126241069   -1.13776329654810    1.78275078576304
H         1.73742692864424   -0.54159364809876    1.43172584786749
H         2.42437783288024   -2.05008749188025    1.24678609469325
H         3.35165915103183   -2.68445564928847   -1.01195487593625
H         2.80609291224212   -1.76364767891280   -2.24992047182900
H         1.54924059758150   -2.29682273585705   -1.00555645208421
