37
 energy: -49.574319390828 gnorm: 0.153512082581 xtb: 6.4.1 (79825abcba525fcdf90b791dcacef51065a7a4e7)
C         2.08865426179221    0.44380352942778   -2.35621220161563
C         2.05913105546697    0.44252473695771   -0.82133720567043
C         2.86952800764477    1.66413079042304   -0.30205155056490
C         4.34493209058596    1.21563243054877   -0.36461277674281
C         5.03370074693832    1.62550262588819    0.94840161400149
C         4.22733972527633    1.07187780966013    2.11450829736977
O         3.00829508560111    1.87587208975412    2.23403523472837
C         2.31483002624609    2.03647617070150    1.04672659245013
O         1.30207507980524    2.73705772329551    1.04047314202010
C         3.87923388702034   -0.46110704936764    1.95742340720415
C         3.87932265248716   -1.42207055838503    3.30395741404186
C         4.85268414386476   -2.42669595953865    2.67207142163179
C         5.13783198137806   -1.43620013872084    1.58473700638683
C         2.59571643874759   -0.76776871856247    1.10459683039682
N         2.66975999907279   -0.79405296346650   -0.34920341095911
C         2.27844690614344   -2.07773248985223   -0.92591078510041
H         1.75533626288122    1.42887475038408   -2.69759720155383
H         1.34436343020739   -0.26745382325045   -2.73987560907222
H         3.13809738892389    0.36549851396422   -2.65059627205375
H         1.02705784391507    0.47974350878414   -0.46091457890096
H         2.60121836378005    2.45904246262930   -1.01131076770715
H         4.86483480370682    1.74709851703832   -1.17575974435405
H         4.42847215049984    0.12879536760557   -0.41929135809543
H         4.98758957529740    2.70648886568584    1.15267539909505
H         6.04084139464386    1.20036038945852    0.92555754650831
H         4.66572826939216    1.23744419429703    3.10529533755128
H         2.88261116044877   -1.76291080780594    3.59672516050239
H         4.33312626482998   -0.83905947666110    4.11749040258008
H         4.38560396234885   -3.34169178306315    2.30245512579696
H         5.73813738946766   -2.69357054981535    3.25846285273135
H         5.03999700709975   -1.91552924103032    0.58529968175726
H         6.02318624956680   -0.80882114119693    1.48423440536621
H         1.79905864297656   -0.06853876104657    1.39657871281579
H         2.31690022089573   -1.80282829188485    1.32865738118501
H         3.08153050409803   -2.72178171799421   -0.54257555929278
H         2.40971664962730   -2.12110149798193   -2.01166862105059
H         1.26153462302293   -2.37833159936170   -0.66577183386969
