37
 energy: -49.581290687415 gnorm: 0.140336422782 xtb: 6.4.1 (79825abcba525fcdf90b791dcacef51065a7a4e7)
C         1.63706895485098    0.39403025980244   -2.24044587601013
C         2.07400234438426    0.41696962876776   -0.76895770259342
C         2.61535160590550    1.80568448550284   -0.32495984706727
C         4.12288162281309    1.98147505365890   -0.60483976209341
C         4.93219500263828    0.99215795804647    0.25111943102933
C         4.38621983449528    0.89698571216043    1.66864427130264
O         3.25880592770697    1.76693828831550    2.01343943443299
C         2.23258867162183    2.00913543685031    1.11644002933257
O         1.15499532503386    2.41006514030862    1.55754558540989
C         3.90424425443849   -0.57932384361594    1.95865389082344
C         3.63011414572639   -1.01555626251001    3.53064583859611
C         4.55905306064786   -2.22418957509684    3.35102760286810
C         5.05091265624432   -1.74343692918096    2.01999851767832
C         2.70295165902730   -1.03935489445812    1.05641271218949
N         2.90649331706312   -0.70209007789299   -0.34520480586270
C         3.30055069520923   -1.73962536836987   -1.29483090097556
H         0.95811911684266    1.24411407899006   -2.36042305445295
H         1.19281661356393   -0.55984006066187   -2.55639639056321
H         2.47428380657520    0.60076140745098   -2.91160758686216
H         1.11837759175881    0.28127612329116   -0.25433803345002
H         2.04899474286586    2.60273555464428   -0.82583183385446
H         4.33573180473345    3.02215827802109   -0.31780726723479
H         4.18017172883558    1.67187241127973   -1.64985054299181
H         5.99115874925770    1.29367630633819    0.24288986081514
H         4.87127142775937   -0.02431205549162   -0.14722348769253
H         5.08463945671727    1.11208414412760    2.48546640701459
H         2.56254212127041   -1.07921887279839    3.75770503434519
H         4.14216995976099   -0.27856117260757    4.16492704625315
H         4.12579717032559   -3.22626907365765    3.36213944978317
H         5.33195340038404   -2.28077568337394    4.12467318515977
H         5.05964343569035   -2.51647676158252    1.21966344470183
H         6.05257211674756   -1.32079555014400    1.94509890431548
H         1.80225247817120   -0.58775081385332    1.49645172841300
H         2.63090899082469   -2.12784160926362    1.15283081566772
H         2.45702656465048   -2.42745064257546   -1.44333002594311
H         4.11659917237460   -2.24724603063297   -0.77102861265411
H         3.58600072735241   -1.43919288256604   -2.30498003666650
