37
 energy: -49.576232562607 gnorm: 0.135799623327 xtb: 6.4.1 (79825abcba525fcdf90b791dcacef51065a7a4e7)
C         2.09532182969530    0.54397840634161   -2.40560566809595
C         2.02794693176826    0.47867488800560   -0.87331636625913
C         2.60276522609477    1.80025404210310   -0.28873573602947
C         4.11119618234868    2.06254415151034   -0.48295666675375
C         4.94361092144226    0.93849712717115    0.15736089075126
C         4.52575640875983    0.86135358914651    1.61885662223393
O         3.49791054740143    1.83199330864763    2.00376532576844
C         2.37196264658429    1.82577238238938    1.19841332197797
O         1.24540433453658    1.90340726129043    1.68970279451980
C         3.86140434595867   -0.53832621240582    1.92777192498065
C         3.58807908742864   -0.92121747882089    3.51373921692552
C         4.62733811808395   -2.04922110012101    3.45429857616484
C         4.95527333938503   -1.74997181922936    2.02335631762908
C         2.64525906787445   -0.96386865704230    1.02850788706190
N         2.73756339572144   -0.70381684204841   -0.40102397125105
C         2.75128853931315   -1.91385366891894   -1.21905385695561
H         1.69450495243437   -0.31113945129841   -2.95889508154392
H         3.14144121227242    0.63423826552606   -2.72893344464834
H         1.42516350723039    1.34689196876082   -2.72237396008389
H         1.00299708532798    0.51298924397716   -0.49283625533804
H         1.96435246657945    2.54349509204016   -0.78567146639494
H         4.30177110146310    2.94507714013114    0.14595600998308
H         4.45160074965011    2.38862326310101   -1.46732478717612
H         6.02250414460283    1.13934422925587    0.06772215087237
H         4.76889142245529   -0.06023023640483   -0.25204940671096
H         5.36925224186544    0.85495491829779    2.31866339392781
H         2.56860451546741   -1.13636011478328    3.84495524517726
H         3.91286990961653   -0.04210881396381    4.08763331538907
H         4.26298472879326   -3.05545603381887    3.67048211678618
H         5.50424232168241   -1.88280556623607    4.08868749027440
H         4.74450715743470   -2.47673576727206    1.20751637370989
H         5.95433503252230   -1.34360147618058    1.86748382699956
H         1.67928542561573   -0.51872626509639    1.30704467084006
H         2.50630973516353   -2.02086943263913    1.27897214198778
H         1.69960167244834   -2.21544341475750   -1.31747596449117
H         3.29010623136883   -2.68971251656635   -0.66615131046248
H         3.25414333519661   -1.78666716976112   -2.17983651816420
