37
 energy: -49.577994422712 gnorm: 0.138463672730 xtb: 6.4.1 (79825abcba525fcdf90b791dcacef51065a7a4e7)
C         2.53513928192931    0.50750498996734   -2.43158409163006
C         2.11071226977232    0.41912132318197   -0.95891151727278
C         2.52637277877999    1.74954875605029   -0.26904829492057
C         4.03599340838349    2.05000791038173   -0.38152809414144
C         4.97292533859429    1.05114801016996    0.31907169748059
C         4.33846758086162    0.83316479927706    1.68525982743087
O         3.19557458904546    1.67711392584909    2.04346199797689
C         2.13849157851452    1.89897932742844    1.17758643164087
O         0.99622930982616    2.09823824818164    1.59238632362354
C         3.87743749648775   -0.66727580808567    1.86421572412676
C         3.83451653981475   -1.02998248332956    3.47766122982477
C         5.03696288924673   -1.96510723634453    3.28885133129464
C         5.17841743477916   -1.65723160891462    1.82943685773050
C         2.53614426876899   -0.93806644438576    1.09196153944122
N         2.69240518426357   -0.76846463799228   -0.34558018203752
C         2.27591263137309   -1.98281725865991   -1.04230977240781
H         2.65698819486930    1.53262200926565   -2.79531179911550
H         1.71782579846622   -0.00462000384705   -2.95768306573952
H         3.48499936292828    0.02433820616563   -2.67332818683594
H         1.02028522417818    0.33532192513894   -0.93863051449972
H         1.97639874020625    2.50425559615941   -0.84772729864784
H         4.26182610091536    3.06007069818040   -0.00804825583608
H         4.41545232381442    2.15806052967112   -1.39913265500575
H         5.95049376966183    1.53820615062032    0.45878423493209
H         5.08119743038411    0.10249855167798   -0.21378983132530
H         4.94893232025959    1.00192088613641    2.57974845347862
H         2.88362599457398   -1.51006672799731    3.72392354495280
H         3.99986410270479   -0.07635642785478    3.99817357592192
H         4.99217700479770   -3.00080662194941    3.63136916857915
H         5.92766956839702   -1.55608175386452    3.77715879393544
H         5.08545697847880   -2.54745929087622    1.16833469888500
H         6.13176591758653   -1.20184599057635    1.56240134022033
H         1.76121016809878   -0.25554314137450    1.46942502147857
H         2.07750650763694   -1.88355071456629    1.40018357324658
H         1.21377046443909   -2.26146336556157   -1.01232768699402
H         2.73143846349882   -2.82888568023150   -0.51824189673600
H         2.69302412252049   -1.92113421673051   -2.04946214421542
