37
 energy: -49.574574228367 gnorm: 0.144417199832 xtb: 6.4.1 (79825abcba525fcdf90b791dcacef51065a7a4e7)
C         1.78299328659282    0.70319809557959   -2.32410885359868
C         2.09899974247724    0.41015949514467   -0.85068333938381
C         2.64433840394852    1.70605938980169   -0.18587413112128
C         4.13694344989785    1.87561579022594   -0.53979875365632
C         5.15246782145039    1.05847935096600    0.27714730936856
C         4.56210628694438    0.82294539194785    1.66008631385502
O         3.57743239342284    1.81912661744776    2.08997418445996
C         2.44326993158812    1.86364323215719    1.29745730209254
O         1.31730200077042    2.12840431493966    1.72009655399746
C         3.88707639801192   -0.57905806312321    1.93324715062492
C         3.43308524783031   -0.85436827713727    3.49999569846339
C         4.09072525329589   -2.22702004594965    3.30169932267208
C         4.98071379148539   -1.76781896165354    2.18736447082849
C         2.83123860482899   -1.05352004817889    0.87076706054334
N         3.00388481934268   -0.68599915248692   -0.52738532829242
C         2.91067022159117   -1.87142670601412   -1.37569128618294
H         0.92549215111182    1.38325328124831   -2.30905384609636
H         1.48558507141576   -0.19959238661915   -2.87508177292284
H         2.59762310841355    1.12941381076316   -2.91473812138264
H         1.17882615767675    0.24837719853885   -0.28184956498038
H         2.15067762959486    2.60511820596400   -0.57946724061427
H         4.29360997746549    2.96301572691764   -0.47871355770535
H         4.26292460783568    1.67351502883966   -1.60491259787880
H         6.03160969141587    1.72106116701696    0.29905979120294
H         5.33982217997617    0.11600204513856   -0.24461404208251
H         5.32498555644694    0.91520353991358    2.44159725171831
H         2.36652016788765   -0.68015000231494    3.66554251898813
H         4.06052185896235   -0.23900155064955    4.15978555485636
H         3.38601661721056   -3.01596719352607    3.03161489198088
H         4.42689194476177   -2.56473372632254    4.28762317177620
H         5.23963463572461   -2.47739396049760    1.37025594327552
H         5.91469023435103   -1.39345439862364    2.60580984968662
H         1.89910580827271   -0.77781179820747    1.38453062395093
H         2.83045226690910   -2.14863307042158    0.87486268718033
H         3.77661663458374   -2.49738918408704   -1.12074747461623
H         2.99095206948691   -1.58626233021540   -2.42936049258679
H         1.95681589230187   -2.39574093292073   -1.28967269266090
