37
 energy: -49.578357636221 gnorm: 0.149243272800 xtb: 6.4.1 (79825abcba525fcdf90b791dcacef51065a7a4e7)
C         2.07018639800855    0.62395258178852   -2.39669314876233
C         2.06678526799895    0.42154725090224   -0.87493923160880
C         2.62529198933400    1.71726242957773   -0.22078749507094
C         4.13324479126506    1.93285626988890   -0.46873807489260
C         5.02706531403700    0.96195081424281    0.32172385762385
C         4.44441772899847    0.74882936190912    1.71155274974371
O         3.43860448281493    1.73456351588311    2.11581901063284
C         2.38507107718090    1.95663448933358    1.24568046513060
O         1.39708063159002    2.55837963516590    1.66794083690659
C         3.75293153431765   -0.65347962100915    1.93798661525539
C         3.56328605990471   -1.07165227367435    3.52725403511826
C         4.73708297626443   -2.05010611208639    3.38298488582464
C         4.92382801830372   -1.79470454354243    1.91854515487301
C         2.54493733984398   -0.95595763475056    0.97984848734094
N         2.84077691683196   -0.72987753322337   -0.42765823568950
C         2.72908415182101   -1.89481630010902   -1.30172507587344
H         1.64829366273417    1.57162466887264   -2.74588369826215
H         1.49943457674839   -0.14207169012502   -2.93937412147816
H         3.08622810336446    0.36541271062412   -2.70481798337534
H         1.03422390296447    0.41023758021160   -0.51417072586841
H         2.09106894805717    2.52186208228023   -0.74437931540658
H         4.45638198365089    2.93463341382607   -0.14820830491592
H         4.20994822704565    1.86991398595204   -1.55563196642088
H         5.98558931167847    1.48986207442791    0.44389876805834
H         5.20250881765561   -0.02443582621705   -0.11629556601570
H         5.08870066035291    0.95757919950014    2.57328282069054
H         2.59293976099197   -1.54428219137067    3.70151777768089
H         3.71975707045749   -0.16629043599335    4.13017387255803
H         4.35094195451039   -3.06394299197296    3.50557099916516
H         5.60424080619664   -1.99332296537286    4.04925613841790
H         4.64643855336701   -2.65040425669578    1.26353666000544
H         5.87034719874020   -1.36493689986370    1.59149993193766
H         1.64200167121774   -0.53379875859765    1.44388367422168
H         2.21173873166630   -1.99519382894179    1.07071512772616
H         2.99525665763407   -2.77971329690112   -0.70775700919870
H         3.43209793427816   -1.90314196837816   -2.14058441786814
H         1.73269203749882   -1.97460693758720   -1.74101871052969
