37
 energy: -49.574688657825 gnorm: 0.155644900780 xtb: 6.4.1 (79825abcba525fcdf90b791dcacef51065a7a4e7)
C         2.07856383767379    0.66403823440459   -2.42870894724620
C         2.12085975444712    0.51464794487577   -0.90142112999542
C         2.64600752880311    1.79953245976021   -0.19998423896629
C         4.15737617207953    1.96231517016662   -0.46672098812789
C         4.97564662202751    0.89167424394310    0.27527907590179
C         4.44727723664910    0.65196150914655    1.68236363142248
O         3.44199949892330    1.64771932609899    2.06268767647063
C         2.33326842416061    1.88886999105213    1.26962334547476
O         1.31453412182815    2.39506204253191    1.74129718359130
C         3.68117149827598   -0.71676700803113    1.87093783950451
C         3.54128461243384   -1.03606052233425    3.48806122955519
C         4.83396329359902   -1.86355755182763    3.50273090809110
C         4.84940941312815   -1.85304176178744    2.00461935222500
C         2.49008080699238   -1.00644847586033    0.88800383684659
N         2.82946405291450   -0.69178658026893   -0.49240022572352
C         2.74337429913794   -1.86655280782486   -1.35614980036995
H         1.53138204641860    1.54651916759474   -2.77487277776609
H         1.52472731262953   -0.18583996472981   -2.85063977170100
H         3.12616819186985    0.77174423089578   -2.72034067200969
H         1.07110559092663    0.37737163757488   -0.62640073115660
H         2.08052334271844    2.64588933774498   -0.61330123357628
H         4.39065254889698    2.94634686013952   -0.03315645615247
H         4.34919953156477    2.12257593238709   -1.52912569848579
H         5.95775135058723    1.34832835114291    0.47357835567858
H         5.19907673279553   -0.04004680032203   -0.25157473003655
H         5.25259050113704    0.71991661032860    2.42270704231004
H         2.65495151900871   -1.66320193416098    3.61622572412323
H         3.66749130303201   -0.08405502411626    4.02232050699678
H         4.74580421741611   -2.80100584904318    4.05537557705580
H         5.67832776879186   -1.35650241889388    3.98132064558331
H         4.48570555472802   -2.85363059037909    1.68097673099724
H         5.81878594760129   -1.66498845854657    1.54363946762081
H         1.62871456172274   -0.49844366733910    1.34497091889394
H         2.32393417126434   -2.08016343333029    1.02519503901669
H         3.16869123954361   -2.69443620951363   -0.77270902212641
H         3.39456090240215   -1.74596542565722   -2.22758389815024
H         1.72196348765987   -2.22332205968943   -1.50304550483990
