37
 energy: -49.581541275620 gnorm: 0.142341497674 xtb: 6.4.1 (79825abcba525fcdf90b791dcacef51065a7a4e7)
C         2.22359686738227    0.45041429163389   -2.44246238719393
C         2.10062592806700    0.48018718303224   -0.91252572503729
C         2.68023655676265    1.78888020995941   -0.30417041612624
C         4.20612471888582    1.94508481691083   -0.47489618855970
C         5.06386834868276    1.06100507393174    0.44655998085787
C         4.35307059894528    0.87740671967870    1.77981971868385
O         3.23388066173745    1.76235251972753    2.11305855839294
C         2.27521684453905    1.96373525378229    1.13489807481547
O         1.18544115739646    2.43567456204382    1.46076371237651
C         3.89338517304503   -0.62902555972693    1.90329867531626
C         3.74950053499946   -1.17968421528231    3.45657810704793
C         4.66214623305278   -2.34945653627175    3.06326493138849
C         5.12138629119564   -1.70299829824527    1.79209314371137
C         2.52554617589357   -0.83669062897707    1.15854144699348
N         2.75536014573548   -0.65102308972758   -0.26708878932430
C         2.42235338439005   -1.86751306587553   -1.00384458711777
H         2.16913764363567    1.46114577923523   -2.85895483445976
H         1.47477817868045   -0.22045283357622   -2.88547631076745
H         3.10117951758453   -0.08495358928369   -2.81307599402299
H         1.09345273242305    0.50370349026889   -0.48648118466361
H         2.16726773608723    2.64585644607934   -0.76174880093569
H         4.41168418618413    2.99792377353511   -0.22996789761700
H         4.50702860155082    1.82747466017235   -1.51739711499640
H         6.04290765960921    1.49938013558350    0.69494394148875
H         5.30797027088842    0.08501381441915    0.01824308916842
H         5.02989020542208    1.01026973705762    2.63159336990120
H         2.69553566098658   -1.44587783154919    3.57327362227229
H         4.18005632674715   -0.51411127688830    4.21770223736145
H         4.20907668705124   -3.33440626555190    2.93442595985925
H         5.44395892823052   -2.45460384901017    3.82274986497386
H         5.25595401104773   -2.27581615512077    0.84764925063161
H         6.03647098492987   -1.13005726704824    1.94013348852224
H         1.75424670080674   -0.20502964301496    1.62215887724645
H         2.29298183371184   -1.88340057172642    1.38125664674477
H         2.82855641325096   -2.73847746887280   -0.47176500984871
H         2.89321232581312   -1.88084842582401   -1.99182066122624
H         1.34770702651723   -1.95146555881102   -1.17771200797301
