37
 energy: -49.575108527699 gnorm: 0.133352228163 xtb: 6.4.1 (79825abcba525fcdf90b791dcacef51065a7a4e7)
C         1.48585878638108    0.43922072550288   -2.17057765111305
C         1.97008536353341    0.53246334197121   -0.71677405755257
C         2.67764060023748    1.88271955488324   -0.40872239491909
C         4.20910508929967    1.86028605081076   -0.59844616235861
C         4.92748106910739    0.84477806844726    0.30658537535126
C         4.37989580982597    0.74468099661507    1.72314962290391
O         3.26351387649167    1.66265164073125    1.96353381659972
C         2.41837778785522    2.23863891437451    1.03059604332784
O         1.61167240640754    3.06301897384203    1.46204720992212
C         3.89463951570860   -0.73877891812188    1.96762646370117
C         3.44554405526054   -1.23219985519245    3.48138131764853
C         4.44277098671305   -2.38597050288032    3.30720771124405
C         5.13345577100202   -1.79571981508933    2.11588657457325
C         2.66686644689845   -1.07829518545793    1.04780388153299
N         2.78552375320994   -0.61086592038886   -0.32592780508471
C         3.26354325828831   -1.63663370032540   -1.24942562945786
H         0.80680662123039    1.28734103814611   -2.30320494981793
H         0.91734792596616   -0.47946240353095   -2.37025281443452
H         2.34068243502733    0.49843400935564   -2.84873311790924
H         1.01539762420863    0.52982894741384   -0.18289281904019
H         2.16808909055328    2.67394457489768   -0.97550584007652
H         4.54269676876475    2.88949981629910   -0.39807139448816
H         4.49252984692865    1.70113135389307   -1.64033083164482
H         5.99088612542704    1.11880693313745    0.22619183484745
H         4.92671666485635   -0.18584310537579   -0.05868091443520
H         5.14844018949930    0.98702386528722    2.46602590032306
H         2.40223045348733   -1.52759570278657    3.62122712956179
H         3.62614058719321   -0.42321595566730    4.20291129527409
H         3.97592985235290   -3.35956117820249    3.14541149648363
H         5.00013026297864   -2.61916554092509    4.22048484443395
H         5.16817428305926   -2.41268309765260    1.19049262014830
H         6.13510982576273   -1.42276764856097    2.32837937135935
H         1.69235917102179   -0.70434537358959    1.39325531849976
H         2.60343479714691   -2.17006361797991    0.99028831395753
H         4.14707486398279   -2.09956000334251   -0.78925207891590
H         3.65628947483999   -1.14314707470612   -2.14396687886510
H         2.64392394722553   -2.49910365745542   -1.50311866894132
