37
 energy: -49.582721715633 gnorm: 0.147859861197 xtb: 6.4.1 (79825abcba525fcdf90b791dcacef51065a7a4e7)
C         2.35552586932015    0.60594496957788   -2.39229184457418
C         2.06624086769800    0.45613004813531   -0.89209713275773
C         2.56129129658393    1.75396506022668   -0.19261770841710
C         4.06106858054680    1.98170608089721   -0.47666702725668
C         4.97912088793774    0.97981654028611    0.24430449620664
C         4.43693213126393    0.72174011391043    1.64285777209630
O         3.37150334459273    1.59747563932394    2.13754164839844
C         2.35843133218437    1.99062175007996    1.27992255512528
O         1.44319028348107    2.55923857218217    1.87619003970647
C         3.80903727899286   -0.71360711896724    1.84638263636668
C         3.56517724872236   -1.01498855372119    3.45458233438012
C         4.81459766070955   -1.90439764208507    3.39225404091895
C         4.88198242806307   -1.94652410409956    1.89613504283732
C         2.51879651834644   -0.93115255759266    0.97648355412307
N         2.75253908751628   -0.75125627902587   -0.44924791305119
C         2.60999314857179   -1.96030616421519   -1.25635973473316
H         2.10529847019988    1.64268161779948   -2.63840825243605
H         1.60936138792525   -0.08439917924079   -2.80908555793270
H         3.34935208756566    0.23969694461696   -2.66117167152340
H         0.98256213383898    0.46769623108982   -0.74386947902835
H         2.03035309177011    2.56418332276324   -0.71085921363995
H         4.30807341237744    2.97879371256005   -0.08230766319851
H         4.34656917254355    1.99178548640319   -1.53002893315399
H         6.03415119897915    1.27576704147520    0.35251545606022
H         4.87380839637912    0.08228177330140   -0.37127708740973
H         5.17338906785302    0.95768188924796    2.41952912128307
H         2.69521329781844   -1.66140622444775    3.59819904808469
H         3.55059711821068   -0.18773380823760    4.17784755211544
H         4.74382423110362   -2.91824024062479    3.79114221037624
H         5.70724585628950   -1.46840217681690    3.85289659898137
H         4.47544225395465   -2.88291571684900    1.45330450915780
H         5.81442772326610   -1.62122339161458    1.43539369757212
H         1.73802287982942   -0.26317416390543    1.36768299687354
H         2.12564780371306   -1.94675665652874    1.09168921024747
H         2.88476662483575   -2.79904168103224   -0.60236368193379
H         3.29021629148799   -1.94104115161672   -2.11362750598204
H         1.61046314715486   -2.05159383988751   -1.68618415219501
