37
 energy: -49.580241743399 gnorm: 0.145386425733 xtb: 6.4.1 (79825abcba525fcdf90b791dcacef51065a7a4e7)
C         1.98266980870722    0.50031841063459   -2.26541638397610
C         1.92040200002120    0.39415445498862   -0.73519861168490
C         2.54555467824826    1.74762784350474   -0.29246163843597
C         4.04326127274366    1.93968164246873   -0.61163580857690
C         4.92231859669704    1.04013467865160    0.27407072622343
C         4.36931867887630    0.81437539079434    1.67398041053778
O         3.24749219163923    1.65278783725604    2.10448381880886
C         2.29751081161405    2.02006526326305    1.16691681032231
O         1.33064015871893    2.72454545043070    1.45914099184100
C         3.95115988729548   -0.69413130097709    1.88716271616218
C         3.68491093806737   -1.04957615387061    3.48070442633306
C         4.63927335636685   -2.23622908725569    3.28826769368528
C         5.05741913852818   -1.89827173041506    1.88983059290675
C         2.62530326298140   -1.00853579561576    1.10484204414918
N         2.83700325555321   -0.64812949870314   -0.28979012272000
C         2.96966262646317   -1.81670262166601   -1.15603997715275
H         1.65772707252558   -0.42069816089165   -2.75953236878578
H         3.02749704828847    0.59873762746221   -2.59053662169080
H         1.29919631903492    1.30847273353488   -2.53721614271393
H         0.90390150568131    0.26518943078150   -0.35236761977159
H         1.96812891364834    2.58142639928283   -0.71469701651050
H         4.28050201072884    3.00096749012719   -0.44399450403167
H         4.23555117560528    1.70841497281035   -1.66078965598448
H         5.86631452650630    1.56872359218311    0.47864517000444
H         5.18625172936456    0.04762419502067   -0.10124551500519
H         5.13473219151461    1.05206175403683    2.42157859152005
H         2.60598936910522   -1.13091050285364    3.63764966901744
H         4.09797029916477   -0.20408342987919    4.04833070184308
H         4.25993971412174   -3.24866987216428    3.44014628635214
H         5.49114107162578   -2.12591057647180    3.96742572623553
H         4.78408970299814   -2.66135215841642    1.12746433312633
H         6.10622551100984   -1.64357306651532    1.73919483523264
H         1.84863860521577   -0.32972988803160    1.48543914305608
H         2.23337013168933   -2.02867972199573    1.17544454147873
H         2.01197327584915   -2.24044682322548   -1.48764293795724
H         3.48159350183268   -2.62089138209405   -0.61827616928750
H         3.64681164322405   -1.54676653712633   -1.96890307399223
