37
 energy: -49.581856113011 gnorm: 0.143296647266 xtb: 6.4.1 (79825abcba525fcdf90b791dcacef51065a7a4e7)
C         2.08219208554397    0.67309774022621   -2.44908115803774
C         2.15706491726009    0.52346948712933   -0.92306677559606
C         2.70599293233607    1.81846432480033   -0.25944904988200
C         4.22465235337867    2.04349515888134   -0.41729881570134
C         4.99316749224576    0.91171368183985    0.28616247497054
C         4.47876085245220    0.75128509670755    1.70959909439060
O         3.44191482425430    1.71507419939642    2.08751998458300
C         2.39860536805203    1.94896392964788    1.20820762362948
O         1.25674656687114    2.07935676496014    1.65056761292502
C         3.85620949084149   -0.68912035113079    1.89278724022860
C         3.42232391990846   -1.13278749835685    3.42624982558024
C         4.68629472475537   -2.00120926304151    3.49110463751144
C         5.11506723901194   -1.71495856570421    2.08437009708832
C         2.65243167552309   -1.01626401322582    0.93745086062477
N         2.80286657391547   -0.70481362036584   -0.47678972315945
C         2.47850175897883   -1.88268357108466   -1.27738968285824
H         1.91250230403511    1.72144102032242   -2.71401822516935
H         1.38255499882420    0.07878945595073   -3.05270278109800
H         3.07077251100339    0.37939121467469   -2.81042551106584
H         1.14298954303810    0.57606520740641   -0.51643472245565
H         2.13710803612532    2.61721938752361   -0.75471017308664
H         4.53618197210005    2.91643757060256    0.17568961167999
H         4.51778065543293    2.07598253220890   -1.46810985918289
H         6.07480343763911    1.11616185650887    0.26066959241819
H         4.74386672736439    0.01923389486428   -0.29429339438402
H         5.25768233186004    0.94622776842618    2.45561141971011
H         2.46786260311643   -1.66261484848302    3.48629487024142
H         3.39657887705758   -0.29358702326775    4.13530223623049
H         4.44958995965961   -3.03356541731130    3.75607461198094
H         5.41755905492066   -1.65753546939215    4.23018867460095
H         5.05648305028276   -2.45486010506897    1.25532447138792
H         5.96785234342436   -1.03958252079484    2.01970068344402
H         1.79519586275188   -0.50371102055299    1.39709832195567
H         2.45025063402829   -2.07794985590245    1.11418772770014
H         2.90167374482297   -2.79283912876731   -0.83103680208914
H         2.93833631146298   -1.77663242753247   -2.26495640587540
H         1.41920759558212   -2.13710930827815   -1.35023271485416
