37
 energy: -49.581553549844 gnorm: 0.141432528209 xtb: 6.4.1 (79825abcba525fcdf90b791dcacef51065a7a4e7)
C         2.29919980540069    0.34791171566207   -2.35130671101241
C         2.12745297120761    0.47190997740140   -0.83083246455454
C         2.90759341841012    1.72505103671408   -0.34119946246687
C         4.41656050982640    1.40733700886315   -0.27828702188348
C         4.96337450537241    1.75072244015905    1.11795203727928
C         4.07996209878558    1.03101085010845    2.12697187805751
O         2.82239663890779    1.77944375094682    2.19866976981420
C         2.30002158978358    2.14565274971157    0.97009152097138
O         1.21313470173892    2.71960956669709    0.89408730588555
C         3.93711795256471   -0.53158146703155    1.94313322387012
C         4.04130086289201   -1.40624744439495    3.34338678717732
C         4.74746554773649   -2.45370056932458    2.47151632875360
C         5.15408115355758   -1.48236536681268    1.40574943498368
C         2.57683355385077   -0.87104788171516    1.23379517889489
N         2.57780595843780   -0.77205472916641   -0.21875699736450
C         2.25078151551085   -2.04549839184671   -0.85511120820918
H         1.97413641399838    1.34892544337477   -2.65183162505210
H         1.55227410507436   -0.37212311561400   -2.71283860501369
H         3.34250835065509    0.11348686286441   -2.57642177831038
H         1.08895412228445    0.59196956141728   -0.50900854183520
H         2.78197466734744    2.50035567700395   -1.10934391217194
H         5.03179809969422    1.94633481519207   -1.01427513205270
H         4.47691666069332    0.32737215615586   -0.42394599982979
H         5.00533662499851    2.85009400330373    1.16274704807410
H         5.95796005420602    1.31452512638520    1.24496203117169
H         4.46722344173170    1.22164313709946    3.13441600540327
H         3.04849968468211   -1.72767285656690    3.66950080883526
H         4.66537325895504   -0.87850771452952    4.07802954648094
H         4.06380713599714   -3.21292154717812    2.08655899787019
H         5.59920402489674   -2.95605471036546    2.94192710168952
H         4.99690348282340   -1.75974374153707    0.33965401453381
H         6.13659660193931   -1.03978364106456    1.56805210706850
H         1.75883249044529   -0.23486555462472    1.60119943394030
H         2.29334939067364   -1.90313545991944    1.46557497508093
H         2.69797246411809   -2.89276079681353   -0.31765867114628
H         2.70724462845019   -2.15686389375804   -1.84365652216019
H         1.17755821003704   -2.21291716450982   -0.96604080092260
