37
 energy: -49.580597372205 gnorm: 0.136639244482 xtb: 6.4.1 (79825abcba525fcdf90b791dcacef51065a7a4e7)
C         2.25156880569452    0.58157733376922   -2.43854826527687
C         2.09483085016802    0.39488203639455   -0.92286605582127
C         2.85312953256962    1.59573159705484   -0.28909515503071
C         4.37888700068634    1.37547289030208   -0.36279791628574
C         5.05755952254357    1.59464463615431    1.00020243267955
C         4.24074423056552    0.89396955290103    2.07648794432521
O         3.03933749082967    1.71823175380044    2.23133296077878
C         2.31823731795680    1.94978726507922    1.07254659946555
O         1.29642056031493    2.63678536303126    1.09376692572458
C         3.78805497046244   -0.60728051817232    1.88357205690780
C         3.80775555664789   -1.36668247313350    3.35310438104578
C         5.11307265256955   -2.06775293314526    2.95231492252170
C         5.08306187264291   -1.54743521502812    1.54765972763166
C         2.48316421691618   -0.87075391526416    1.04893834003228
N         2.60607849498962   -0.86686205889433   -0.40178057027101
C         2.07110238052446   -2.06261517386784   -1.04794269140788
H         1.94720731103902    1.60283090074377   -2.68837849417292
H         1.90980242286222   -0.24662909426901   -3.07441249319258
H         3.32956427146995    0.61780659004292   -2.61387010258603
H         1.03755440235307    0.60175412440396   -0.73356403210450
H         2.47024485680681    2.42937801208745   -0.89354220787329
H         4.80372857616816    2.19770238861734   -0.95791363500872
H         4.58723429938847    0.37161956393133   -0.73703497294652
H         5.07529713555765    2.67908409701054    1.19010157984237
H         6.09516718982601    1.25233861696451    0.95781188191759
H         4.78146117233791    1.02358440348181    3.02098827336035
H         2.94444890199621   -2.01902104879506    3.50954871170914
H         3.89833823328208   -0.63734398842673    4.17013296897401
H         5.00504538405393   -3.14533941461809    3.09064403966618
H         5.86996210631724   -1.67898559078895    3.64157736695399
H         4.90517326182290   -2.31563917210513    0.76253467285771
H         5.99129550697248   -1.04749330411088    1.21191116079899
H         1.70209374036964   -0.26054251818619    1.52476450949872
H         2.28964898364688   -1.90084438412707    1.36635826591177
H         2.59436091192534   -2.98501496291836   -0.76146809136444
H         2.03893086038134   -1.97092417116041   -2.13814471107784
H         1.03043005660708   -2.11542230026367   -0.72182122127405
