37
 energy: -49.576690395633 gnorm: 0.138797230817 xtb: 6.4.1 (79825abcba525fcdf90b791dcacef51065a7a4e7)
C         2.28176024212562    0.48679709117545   -2.35489085109855
C         2.11425879527022    0.39320556821573   -0.83176959053789
C         2.83441383352777    1.67562148863429   -0.32629138987450
C         4.37037554839369    1.52791615345131   -0.35606690294550
C         4.97941090195097    1.66602964301706    1.04977917389912
C         4.17521861721558    0.95777508290953    2.13059994477831
O         2.90003142025696    1.67749529133884    2.18221127146745
C         2.29425362276905    2.10240350219482    1.01222174208150
O         1.32295730195305    2.85924189563482    1.02969347016247
C         3.87203930146627   -0.57903528760226    1.92519287957396
C         3.89055650851222   -1.35515699252038    3.38597928164516
C         4.95760069528969   -2.27343559222607    2.77428832940016
C         5.07589654400361   -1.57926245172096    1.45185982908740
C         2.56177019706281   -0.93638718313877    1.13508778654199
N         2.64682629397811   -0.86206970157195   -0.31644615797423
C         2.23847429822205   -2.08976051710582   -0.99436528588146
H         1.51811431350781    1.19799212853804   -2.68512777851060
H         1.95204679456842   -0.43360404889635   -2.85609365605366
H         3.26344812362832    0.81510169778112   -2.70507581953983
H         1.02266908925288    0.37940275369061   -0.76316793219399
H         2.56613057070540    2.52395077212730   -0.97071731280921
H         4.84449862588614    2.21415285706337   -1.07370254089647
H         4.60642894821649    0.50403410463614   -0.65124112455121
H         5.05617811137100    2.74125039059725    1.27426167214722
H         5.99407703956211    1.25853403269337    1.04978901896742
H         4.55426782505325    1.14382583806174    3.14201603227963
H         2.98024731873274   -1.74449785856027    3.84973535073147
H         4.29010283887198   -0.64935071345812    4.12751538381985
H         4.59853841127244   -3.29691851104130    2.64957083366777
H         5.84930392228559   -2.47117473056818    3.37833220058772
H         4.68812775115851   -2.17226226759611    0.59384490001534
H         6.03130316997054   -1.13248537501853    1.17773254181272
H         1.68591688898445   -0.38557009100645    1.50700322564556
H         2.25110389629733   -1.90079270390319    1.55065770447633
H         2.57410761376825   -2.95856969370276   -0.41194837931550
H         2.76626868874684   -2.11748047610287   -1.95282622766798
H         1.20762257093705   -2.20612756495014   -1.33487388688907
