37
 energy: -49.579095111193 gnorm: 0.144926253315 xtb: 6.4.1 (79825abcba525fcdf90b791dcacef51065a7a4e7)
C         2.07042549651322    0.51354694403795   -2.30021839846843
C         1.98971745269637    0.38975409370558   -0.77218828355488
C         2.58497831909638    1.74137070671735   -0.28482892406332
C         4.08324464259417    1.86682886273952   -0.63316801504776
C         4.97825508329143    1.02124899002073    0.28897816972121
C         4.37780096002666    0.87225667703985    1.67958215307411
O         3.24001767276220    1.70526867742766    2.07745587803326
C         2.25764951325747    2.02627783324676    1.15642647962539
O         1.14915590648106    2.45121906920409    1.48382994202055
C         3.83229922201101   -0.58188604810098    1.96905189869414
C         3.73150292601508   -1.08994970532151    3.54013946593268
C         4.63035700569753   -2.27283485927260    3.15435615976443
C         5.05645079309953   -1.65997925424229    1.85530285415716
C         2.55003398598461   -1.02641740500202    1.17724424435833
N         2.79289871582195   -0.69376341200682   -0.21920357333633
C         2.96131751727226   -1.82920146296396   -1.12251193810529
H         1.56120252652783    1.41925739441060   -2.64429754547398
H         1.63766708966547   -0.37234095792819   -2.78496189353927
H         3.06394366941131    0.60588734454274   -2.74577357438085
H         0.93011750602002    0.34164290211195   -0.50498411125158
H         2.03128274201403    2.48769266756551   -0.87078796268790
H         4.31739434056777    2.93499646853914   -0.51107660557613
H         4.35999082594767    1.50314535337390   -1.62429329952145
H         5.88766963006251    1.64133764020289    0.31796963728810
H         5.20837927916593    0.00179335680128   -0.03250761682457
H         5.03248337655342    1.09614836936390    2.52959341860911
H         2.77615691658890   -1.28811822967213    4.03345687493180
H         4.20227672884986   -0.34936570684178    4.20163998207424
H         4.06882291705098   -3.19791943867054    3.00980357110873
H         5.49497791091017   -2.41326097131149    3.81148294264916
H         5.04335697965033   -2.23669235155990    0.90376010715372
H         6.01256555116014   -1.14212161861935    1.92758981392159
H         1.70635457507782   -0.47445176595309    1.61585407967278
H         2.36047965035815   -2.09206240230564    1.34385703925714
H         3.42723333572557   -2.55640971102731   -0.44370476063118
H         3.60462064147426   -1.43459704280083   -1.91524842773868
H         2.02475661917957   -2.15640926662534   -1.57850692660726
