37
 energy: -49.575357881916 gnorm: 0.146919021371 xtb: 6.4.1 (79825abcba525fcdf90b791dcacef51065a7a4e7)
C         2.19150519285877    0.79045817862538   -2.43670964882151
C         2.12514458326649    0.53991719811806   -0.92358705796505
C         2.93137399954215    1.68680145694719   -0.25025745052451
C         4.42515415410656    1.32708404240362   -0.39553681149159
C         5.12482421408130    1.36209943231961    0.97400265064996
C         4.20363342011844    0.83654070676250    2.06566142025611
O         3.04245678346229    1.70011173016293    2.29517662295294
C         2.35693070699341    1.94277813722700    1.11723083867082
O         1.27664035306875    2.53237155682604    1.16057289139701
C         3.75932639405545   -0.66436841185082    1.85174785280674
C         3.74032552470092   -1.35560582704953    3.35455673272187
C         5.13674780309124   -1.95880273819154    3.14926910970643
C         5.02928938645848   -1.68016676653519    1.68110628712870
C         2.48247432542339   -0.93829785861910    0.97802991116759
N         2.65231453903078   -0.73528229435350   -0.45362906789695
C         2.13077109302296   -1.89784422315524   -1.16776677041254
H         2.10902760593420    1.85078295805651   -2.69539617797544
H         1.35652679161487    0.32872599579759   -2.98138196343907
H         3.09660348112918    0.43290141209120   -2.93377581282715
H         1.05460060085317    0.54203807912072   -0.69909675991779
H         2.79533324664638    2.51793484096870   -0.95568885903145
H         4.99943071133652    1.98314623099580   -1.06673221188821
H         4.47567460734392    0.30046865838145   -0.76254092661711
H         5.23501483622620    2.42049459634155    1.25692131561121
H         6.11404007530259    0.89624884951148    0.97994076059189
H         4.57016936138701    0.89487906002888    3.09692460223939
H         2.88203908777162   -2.03185001026857    3.39139466781452
H         3.66979305154732   -0.69980077016335    4.23354504883890
H         5.20799083448728   -3.02586655072435    3.36903423591296
H         5.86952548196079   -1.32334938788188    3.65754100720497
H         4.73357213485616   -2.57761787183837    1.09345344895097
H         5.94437416953805   -1.40061400734885    1.15954378469194
H         1.57476239137370   -0.42752242988425    1.33017632570508
H         2.33469160971539   -2.00342739893270    1.18527195739913
H         2.83648076875147   -2.73061010438114   -1.29090654380292
H         1.88684606985742   -1.60931635471728   -2.19501306495255
H         1.17597599504666   -2.23686536140151   -0.76085931021540
