37
 energy: -49.569433591498 gnorm: 0.143746902117 xtb: 6.4.1 (79825abcba525fcdf90b791dcacef51065a7a4e7)
C         0.78595617820625    0.51336308547886   -0.80239893518568
C         2.19146637807045    0.31958153286228   -0.21613601134149
C         3.03820196664887    1.61455084750295   -0.37366493362378
C         4.56399073909873    1.50224168457344   -0.57673407419599
C         5.35489379505467    1.01919589425994    0.65108581433815
C         4.43866969107819    0.59692895702673    1.79071175820729
O         3.32314358515877    1.51012469851128    2.05231893922918
C         2.73499482708123    2.17491928050205    0.99000145276919
O         1.87124405162604    3.01364699217051    1.24883843966117
C         3.89012492056945   -0.86940113185400    1.57888501571452
C         2.65914559737759   -1.13353553604670    2.65197755381855
C         3.70200621758360   -1.60869041806749    3.67308198657272
C         4.76004497691843   -1.77577016328343    2.62554881962633
C         3.77764580661049   -1.53522620236515    0.16015426562955
N         2.80627706237919   -0.90215184567882   -0.72039556474525
C         3.03339520713351   -1.13346444781328   -2.14463649266231
H         0.21020960421110    1.39337500865311   -0.49891122754890
H         0.22579316055394   -0.41461424370585   -0.62315348741136
H         0.81242669173011    0.53223508871082   -1.89467530753714
H         2.07395256974379    0.20498104223349    0.86530840017756
H         2.71252275424889    2.23894153697850   -1.21686867041642
H         4.95952967723196    2.49389240906045   -0.84298996639944
H         4.83499746904829    0.83912580947983   -1.40015143330403
H         6.08753418627179    1.74287393416545    1.04084650068707
H         5.97329836019438    0.14645914251571    0.42413561892711
H         4.91530936393533    0.67337971674376    2.77469630223411
H         1.98656327492778   -1.90334775035720    2.26423924055835
H         1.94276819933506   -0.32760269320458    2.86399459251152
H         3.46547581230417   -2.54683866265271    4.17897594624707
H         3.90099851892939   -0.81525887805947    4.40107433853610
H         4.93255227922017   -2.80727940684496    2.24550546971470
H         5.78324315797281   -1.44609440686000    2.80425733521711
H         3.36339375070502   -2.53081984828442    0.37469588430814
H         4.74932547262140   -1.42305626208124   -0.33233576877258
H         2.19265720021955   -0.69320393848327   -2.69782618720364
H         2.94205323346077   -2.22096267608802   -2.22822437657286
H         3.94050051316387   -0.69767083743318   -2.56817700328440
