37
 energy: -49.564178633577 gnorm: 0.143588757293 xtb: 6.4.1 (79825abcba525fcdf90b791dcacef51065a7a4e7)
C         0.83314783386431    0.64664530383993   -1.13464223236609
C         2.09791980888686    0.31401490869085   -0.33063767651389
C         2.92729104926600    1.62827037228756   -0.27065426823735
C         4.42088803552594    1.58512669209250   -0.65690356220563
C         5.22940934316354    0.88960590765661    0.45167513238465
C         4.46601564270148    0.54253284459919    1.72183010068444
O         3.50745397283051    1.59303950187925    2.07447521273744
C         2.73355360135756    2.20753480831073    1.10500990267017
O         1.94951225907767    3.13614724447840    1.30371645733453
C         3.90205363864786   -0.93287200758172    1.68984152118265
C         2.67788885223608   -1.29077542921893    2.74337386987532
C         3.74973638014424   -1.56641691556575    3.80692892250901
C         4.76500157341028   -1.84174215862738    2.74010185324701
C         3.64133516121145   -1.61396820693039    0.29811403562333
N         2.83207810355948   -0.89680150149744   -0.67681330654141
C         3.16882729027031   -1.10185677441075   -2.08326370811025
H         0.22528750649055    1.18401700227852   -0.39996720721407
H         0.33235614286968   -0.30212509340564   -1.37148792333526
H         1.02628952831137    1.24580713199380   -2.02785324165543
H         1.77026103102555    0.08248564104215    0.68695690012914
H         2.46960495126119    2.32319110476230   -0.98796303819507
H         4.78313802047164    2.58642380661738   -0.93420025685357
H         4.57322390321654    1.10736824846939   -1.62629725287851
H         6.13726713588046    1.46058918260121    0.70098936001352
H         5.68698931252491   -0.05240623839766    0.13729679777509
H         5.12401424148543    0.51792640521330    2.59800820226689
H         2.00916419019315   -2.10964881721130    2.46485542165853
H         2.05578015689861   -0.42348323903609    3.00502361314923
H         3.53377621051423   -2.41013644153916    4.46533307560373
H         4.04396104468270   -0.77748481075717    4.50701633940389
H         4.98717056664526   -2.83308501978162    2.28613785449982
H         5.72196303111007   -1.35055884562702    2.91480470526038
H         3.15333692830396   -2.58664612350105    0.45494189097772
H         4.60458117931282   -1.80706740714004   -0.18578649180391
H         2.43778930353169   -1.81136306036470   -2.49420512597083
H         4.13058753072867   -1.59188476998366   -2.26457141277532
H         3.01119748497033   -0.19740059177397   -2.67424132144935
