37
 energy: -49.580829443676 gnorm: 0.136518054891 xtb: 6.4.1 (79825abcba525fcdf90b791dcacef51065a7a4e7)
C         1.80990970207875    0.65387251727570   -2.36112741568195
C         2.08316150443403    0.49066980213565   -0.85932423515935
C         2.87865357312991    1.68847817393208   -0.26672858980218
C         4.36246224854055    1.38383381922853   -0.56233894314901
C         5.11498060575978    1.44366526229671    0.77801135411349
C         4.30762145758712    0.83294382488224    1.91454724348758
O         3.11354137832108    1.63239601379840    2.20057569846860
C         2.32555909969106    1.95184983659665    1.10813694483507
O         1.25070612386112    2.54563259045888    1.20108474755876
C         3.80972329921508   -0.66618835789810    1.89013357459059
C         3.74526785208006   -1.20266279339388    3.45366975518099
C         5.00014913561715   -2.06105126393292    3.24289286864172
C         5.03874314831045   -1.73912307825547    1.78016933546577
C         2.51994703173589   -0.97154971672273    1.04633075804155
N         2.69913343141364   -0.74044886910903   -0.37992064425703
C         2.48607269806445   -1.89246371660401   -1.25228373431717
H         1.51624827275926    1.70412992705088   -2.45457392132923
H         0.98221556714129    0.03832449707646   -2.73938198266532
H         2.62758836658244    0.54078474260144   -3.07718416746574
H         1.07426803211463    0.51828903449302   -0.43761823483952
H         2.57361703711378    2.53584434047822   -0.89589196278671
H         4.88124412642775    2.05210922560718   -1.26589260958495
H         4.47756152991924    0.35856503187955   -0.91837201408203
H         5.27046688557246    2.50726205234989    1.01669763866970
H         6.07350641035580    0.91899865447008    0.73859969073314
H         4.92942893109620    0.94223222028203    2.81046421219206
H         2.85361491598258   -1.74965040930243    3.77159807609003
H         3.84662854577279   -0.31548138750721    4.09422477179943
H         4.88656084311643   -3.13078887974032    3.42932406843893
H         5.84090245738478   -1.63033197094830    3.79671517829852
H         4.95588879156331   -2.49876700662148    0.97129401218075
H         5.95330056434998   -1.28597116369412    1.39833765595459
H         1.72129170944010   -0.34689839230031    1.47153658021536
H         2.16791060432195   -1.97395075347089    1.31194783135062
H         2.95612214636439   -2.78726778783504   -0.82208871707983
H         3.03516711852853   -1.73567027080925   -2.18603628512332
H         1.42056573867478   -2.08991171213184   -1.38589472644919
