37
 energy: -49.578278302595 gnorm: 0.127790402730 xtb: 6.4.1 (79825abcba525fcdf90b791dcacef51065a7a4e7)
C         1.62727994416919    0.48983197899112   -2.34829972911063
C         1.83618841221033    0.47862923150372   -0.82746239613325
C         2.56051231268134    1.75352145603670   -0.30907376928896
C         4.08189368839836    1.84666343669032   -0.55115871551444
C         4.97177577642388    0.83620433815127    0.19280692259528
C         4.43423062699010    0.66942895672732    1.60693368047273
O         3.43909316914476    1.65648907546424    2.03375572975679
C         2.39019238906970    1.93735078791784    1.17508635386412
O         1.30712933239269    2.33588756532965    1.60481769236343
C         3.80980913044565   -0.75596673919679    1.87940534885006
C         3.54472103474984   -1.05012300730786    3.48558251375770
C         4.83605594229812   -1.87606247229197    3.56472072203663
C         5.00646041952387   -1.85277610561967    2.07639701782161
C         2.51507190325977   -0.95658845004254    1.01212339882366
N         2.64610756216999   -0.65802963779752   -0.40682010739167
C         3.33622783038653   -1.58208723918814   -1.30314702969302
H         1.03170512875973    1.33288190601016   -2.71239773718185
H         1.10300506012896   -0.43392136981414   -2.62913608483976
H         2.63498217832732    0.62689787567876   -2.74814178556708
H         0.82845059306988    0.44574260660443   -0.40337781315015
H         2.02248339038079    2.60751589794646   -0.74282672369041
H         4.28616501718605    2.85610266877400   -0.16383444498158
H         4.31234550388443    1.72383788126074   -1.61087061967691
H         5.98945187611445    1.25384170113534    0.14485233712514
H         4.98966430668260   -0.17645713234733   -0.21925713804725
H         5.20411265702213    0.88982425684981    2.35524061626411
H         2.69040684925874   -1.67419883274765    3.76125525324521
H         3.59618614090904   -0.10592636924276    4.04551073400734
H         4.77542188094597   -2.85600629042475    4.04224672438156
H         5.69292539719595   -1.39142590001874    4.04431069149447
H         4.85747259894201   -2.82198697365808    1.55043509092867
H         5.93768289486580   -1.45641409891629    1.67231879155391
H         1.68875635846200   -0.38114582327741    1.45360723543197
H         2.09397622492656   -1.95762105455144    1.15319804706001
H         2.59548649827741   -2.33703971026123   -1.59985832867695
H         4.09372125365729   -2.15661120056155   -0.76082921635500
H         3.87445627837977   -1.03938994589218   -2.08284726701442
