37
 energy: -49.571538935601 gnorm: 0.132174182365 xtb: 6.4.1 (79825abcba525fcdf90b791dcacef51065a7a4e7)
C         0.98872548004555    0.73283603809778   -1.13551401353649
C         2.20910089234051    0.36671382538188   -0.27915376466722
C         3.05936360105647    1.66879769540481   -0.29794389100557
C         4.58328308330457    1.61623872010593   -0.53624798725582
C         5.39866235201492    1.08064599920743    0.65316350484677
C         4.43398445654896    0.72598517613317    1.77572111067926
O         3.43152768518098    1.75619515581435    2.05946592771247
C         2.65922936649894    2.26024570984661    1.02705243361707
O         1.76000735467506    3.06652872897617    1.26753872729316
C         3.87577341164321   -0.74651487087222    1.64907219226328
C         2.67524456712216   -1.27939787084278    2.65474156800977
C         3.72336697582621   -2.00283311154357    3.51151783216776
C         4.84370755164131   -1.69286202216405    2.56629705626127
C         3.83260592366513   -1.44785654805026    0.24371529458446
N         3.02433147211575   -0.74839888123134   -0.74479865345977
C         2.58987084462928   -1.62590486069552   -1.82867026215966
H         0.63212958194503    1.67634164669255   -0.71048878075573
H         0.21648216498113   -0.04736486771755   -1.09101366977810
H         1.25064978310729    0.85137237396205   -2.18977646906217
H         1.85715471211785    0.11719886573859    0.72600342865861
H         2.69602414554554    2.25078508179008   -1.15596393142823
H         4.90845487369932    2.66618018780066   -0.58724468612055
H         4.87191523261007    1.04101439850497   -1.41771945332178
H         6.12078291643552    1.81878081168880    1.03537306584642
H         5.91440964923039    0.14109798353167    0.43670494931249
H         4.97633908668161    0.80667492176047    2.72471865012657
H         2.02049990727088   -1.93933048592712    2.07931372289787
H         1.95339014470770   -0.54132339206713    3.03136845465701
H         3.38858873919722   -3.03839005868117    3.59836714567476
H         3.93441513064686   -1.52820780922907    4.47551674730365
H         5.21311843936087   -2.61100783831863    2.05762535432763
H         5.73925893129798   -1.21911589828594    2.96768178615154
H         3.38904445985544   -2.43065216127135    0.45867020296464
H         4.83604467594303   -1.56098506758384   -0.18008009524148
H         1.64120906052268   -2.14849829194105   -1.64529773539449
H         3.35748646816242   -2.40315331708140   -1.89674218200960
H         2.50856928984585   -1.11118506671332   -2.78814734867027
