37
 energy: -49.571830344078 gnorm: 0.127549155646 xtb: 6.4.1 (79825abcba525fcdf90b791dcacef51065a7a4e7)
C         0.97906788423625    0.34404792553313   -1.40634830505911
C         2.14783199037882    0.31843448176294   -0.41133629286011
C         2.76847551090820    1.73510793194800   -0.24836359018984
C         4.25220830242463    1.84739137337523   -0.65801138792942
C         5.23092381206367    1.02986090911080    0.20231557663839
C         4.72112524237417    0.62537617039374    1.57818650571904
O         3.82764733411721    1.69468722157540    2.03099376992698
C         2.75138121439573    2.03006212611322    1.22752367852946
O         1.76828382889257    2.52906539168426    1.77619613718914
C         3.98982617824786   -0.76429946892121    1.75110036450308
C         2.86642423141551   -0.71539247757449    2.96443497728983
C         3.51707662065441   -1.89171588371926    3.70531243637450
C         4.62239625705418   -1.94012613346300    2.69505883607443
C         3.55982418993812   -1.47424952924456    0.41699362538836
N         3.23059890030972   -0.61122734816515   -0.70840047343345
C         3.12261135505196   -1.33865513213936   -1.97043770356168
H         0.32600604092946    1.21378434949034   -1.28355297667603
H         0.35673433567452   -0.56051783809041   -1.36742272059083
H         1.38569200985130    0.50744510061710   -2.40738911935376
H         1.72122559574457    0.09260121419892    0.57022936445479
H         2.19048677118517    2.47178303358811   -0.82296090792371
H         4.53099409518650    2.90939289982010   -0.72974469246543
H         4.35631804974097    1.43429286244997   -1.66284683200652
H         6.13115082708344    1.63372921089919    0.39549854629732
H         5.62467700885216    0.20063178517771   -0.39176987209264
H         5.47093271049375    0.64834174147471    2.37725911656236
H         1.82624307930770   -0.75052615275483    2.62961021077967
H         2.97530816432560    0.25412480119564    3.47025718030043
H         2.81278592845534   -2.70612493575862    3.88617142689784
H         3.80516511959794   -1.67018002776089    4.73828450196287
H         4.68184404353968   -2.96630488652892    2.26888262816927
H         5.61196735789077   -1.74053864337026    3.10551130049626
H         2.62901687944094   -2.02226913381096    0.62220537816654
H         4.34351584354573   -2.10397782411254   -0.01724086619447
H         2.12446536079354   -1.72942520205290   -2.21062906328823
H         3.85372756717463   -2.15298560334580   -1.98826085599482
H         3.36006436808921   -0.70722615613100   -2.82895748097138
