37
 energy: -49.575954342224 gnorm: 0.152149857065 xtb: 6.4.1 (79825abcba525fcdf90b791dcacef51065a7a4e7)
C         1.82274868694255    0.50284419460914   -2.41053272857929
C         2.01902859163798    0.42510626825739   -0.88995867584361
C         2.69802162702740    1.71438808293273   -0.34641207710432
C         4.22732820703587    1.88922604046574   -0.45837149617523
C         5.03141056998252    0.93740088421331    0.44378316032446
C         4.32863845969061    0.82701136396622    1.78931236326650
O         3.29500487303228    1.82823050814202    2.06485753447367
C         2.35694197160756    2.06977028074770    1.07587534285567
O         1.35795784722706    2.66085439348199    1.48718599812338
C         3.80977715262409   -0.65924950806425    1.92238187819902
C         3.56766144282366   -1.23018989223692    3.45600887942312
C         4.81377637755317   -2.11380843915851    3.30634079218041
C         5.10894807088596   -1.65213232129166    1.91191753165414
C         2.55781071127526   -1.00356927509982    1.03762455251658
N         2.75019773297878   -0.72778014282448   -0.37893325668694
C         2.82461721034885   -1.98454941796683   -1.11957025717691
H         1.33026759461285   -0.43168509253714   -2.69711131986465
H         2.72607999950405    0.75212440113154   -2.98403545203441
H         1.07972785277290    1.27894994369973   -2.60979242132523
H         1.03090914848662    0.28762334759938   -0.44142417396924
H         2.30977994473144    2.59432254755708   -0.87736121257296
H         4.39905130556507    2.90014428362389   -0.05928514618299
H         4.51026877844042    1.90863040112349   -1.51229349355710
H         6.00928576914390    1.43323529479898    0.54524051183773
H         5.15577974337042   -0.05111993765086   -0.00672648505743
H         4.94885666622826    1.16397468693463    2.62778764567327
H         2.57023438817337   -1.61884356071967    3.67828444477631
H         3.68173227365947   -0.34279938638889    4.09413230433807
H         4.43450322132669   -3.13733132407158    3.28288359868360
H         5.62904657660523   -1.97236016388890    4.02357945414931
H         5.08751243867925   -2.33910783750772    1.03681285613446
H         6.06797776258478   -1.13671960926407    1.86534342416061
H         1.67284097191897   -0.48452710099988    1.43292617810552
H         2.46152385659408   -2.09439678850202    1.02694243264485
H         1.89381535448805   -2.56152442999715   -1.03356851835557
H         3.60031896353245   -2.58887257367375   -0.63888012063904
H         3.05843117286407   -1.70581962557796   -2.14902808707620
