37
 energy: -49.576108942440 gnorm: 0.146436312876 xtb: 6.4.1 (79825abcba525fcdf90b791dcacef51065a7a4e7)
C         2.00528827291589    0.67768359926537   -2.39409306047020
C         2.11377702085037    0.55689041962319   -0.86754346256507
C         2.75850891263387    1.85519363722117   -0.30411499854132
C         4.29730613497117    1.89685367161308   -0.41479193237022
C         5.03161918763737    0.85604443667138    0.44770622316501
C         4.36584412148280    0.66101101257857    1.80241240280027
O         3.27561870046726    1.59898101681997    2.08238400510046
C         2.35992504437766    2.02807322352487    1.13698766815936
O         1.33896373199014    2.61002138466087    1.50509157528306
C         3.80193118877074   -0.81412282517285    1.84575192951589
C         3.51103553361472   -1.21473634620673    3.42419840168974
C         4.89086085308071   -1.88425730585781    3.48591126219534
C         5.03491914434543   -1.87776945469527    1.99463915051194
C         2.52373531348831   -1.04438761289960    0.96146405162341
N         2.80601669770651   -0.64110003576686   -0.40871287694970
C         2.58836536550044   -1.78108294172036   -1.29562738037169
H         1.13730194547237    1.33229281916677   -2.52096472263097
H         1.61110863275945   -0.28758950016892   -2.74039311018095
H         2.82319853763132    1.13797629660559   -2.95380544227583
H         1.07043589963525    0.41049370451139   -0.57348206175780
H         2.23413327203858    2.61629346128003   -0.89798408815922
H         4.60251487034328    2.91756233736587   -0.13962676355553
H         4.66540866169906    1.77359472160097   -1.43483665188345
H         6.07663423353730    1.19939252373074    0.49711168520409
H         5.11596923628037   -0.02862430265225   -0.18935447657250
H         5.01032533092958    0.95957108383630    2.63713484374546
H         2.68432129421896   -1.93007353472212    3.43665284308608
H         3.23162019227770   -0.39409368863130    4.09958589254272
H         4.88793392032971   -2.84977543432728    3.99558138927271
H         5.64519504643334   -1.26070911181328    3.97710570950098
H         4.77704288298727   -2.86969978077658    1.56130659700812
H         5.99213737209047   -1.62434120477249    1.53959547895176
H         1.71751754049719   -0.46058916014377    1.42840288471188
H         2.40118785162301   -2.13258112498573    0.97180508949074
H         3.20802255890521   -2.59159636689891   -0.88846461377139
H         2.83412455418070   -1.75821411771827   -2.36195853474699
H         1.54033199646045   -2.06858360028219   -1.19021331979899
