37
 energy: -49.578579506883 gnorm: 0.138254532465 xtb: 6.4.1 (79825abcba525fcdf90b791dcacef51065a7a4e7)
C         1.96693023563174    0.54463311274829   -2.37052879128984
C         1.92679196159422    0.40713337534333   -0.84206641372198
C         2.51278101106425    1.73182734327535   -0.27591727284306
C         4.00927267419810    1.96668998473369   -0.57127147975064
C         4.99877333705028    1.15508383789876    0.28230130138688
C         4.47625883642518    0.77790403178648    1.66115491763284
O         3.33171480621194    1.60780284062186    2.04592790377594
C         2.29513645956486    1.95502132140554    1.19661411289432
O         1.31585510796306    2.51255141756176    1.69329751851388
C         3.96071827062048   -0.69341133832040    1.91678148555308
C         3.61175260841391   -0.95938877795819    3.51179988475573
C         4.59772152099354   -2.13466332787230    3.46100873834382
C         5.05729184400487   -1.89851588577440    2.05469550868888
C         2.74819183780346   -1.01870811449585    0.97193585056323
N         2.86171461133285   -0.63136136656447   -0.42691494296130
C         2.77055515338854   -1.84684852859129   -1.23179467623402
H         1.40467919813444   -0.23247967609183   -2.89776630625989
H         2.97375821002133    0.36196482205929   -2.77050778833059
H         1.81512483674898    1.56730528848615   -2.72439496574760
H         0.87912637660892    0.31106394185035   -0.54267988523368
H         1.90372789614663    2.49441174917453   -0.78034030213903
H         4.17569084779954    3.05431533670877   -0.56175779397173
H         4.25895267984857    1.64899313302732   -1.58513147478502
H         5.95563292034260    1.67681507861857    0.43914997591112
H         5.28224681066252    0.23746352780566   -0.24039918987161
H         5.17082075431772    1.07765894930064    2.45424156836880
H         2.53697521243734   -1.13590699169248    3.60674042463378
H         3.96413898820131   -0.16682675063047    4.18659232528049
H         4.30519045483596   -3.12671886530495    3.81064976484198
H         5.48024897253108   -1.93580367684765    4.07802133828968
H         4.88761651506733   -2.75933074398103    1.37028985485243
H         6.09823605423975   -1.60670702243870    1.91743627680354
H         1.86618571764431   -0.55905855573230    1.44057974083802
H         2.66685119177425   -2.10561791492708    1.07824071126987
H         1.76678825495265   -2.24599447348805   -1.43135192133304
H         3.33344755089106   -2.66476607783061   -0.77120187306955
H         3.26780827525994   -1.69387943375748   -2.19173346907733
