37
 energy: -49.572997129953 gnorm: 0.153090453013 xtb: 6.4.1 (79825abcba525fcdf90b791dcacef51065a7a4e7)
C         1.93114641051915    0.61164774737750   -2.46653268696626
C         1.94167367044916    0.53598156001548   -0.93327528685665
C         2.56508189604235    1.79713338001485   -0.27026672304976
C         4.09350690207166    1.92406533205395   -0.44256630142390
C         4.94908772390882    0.91991023928667    0.34867108559264
C         4.33327235564813    0.55594261565740    1.69210784144775
O         3.29174795666411    1.50608558227140    2.09112988691872
C         2.34906456494828    1.99946530409427    1.20551499615953
O         1.51339796431358    2.73466503166246    1.73245794653683
C         3.70025715695091   -0.87587316850403    1.90445487914138
C         3.47225567123660   -1.30316304768995    3.48623975777676
C         4.89849028476040   -1.87023701551212    3.46991036015706
C         4.92503476852629   -1.95698093085223    1.97443107872195
C         2.48118933409408   -1.08887934166726    0.93632595343232
N         2.73213928318072   -0.56619419367195   -0.39916376933209
C         3.13778491408187   -1.66489251655712   -1.27201201673574
H         1.40161129804702    1.44723795428416   -2.93492511904145
H         1.44233166450280   -0.24210339486221   -2.95563655192007
H         2.93483968854028    0.56898218628287   -2.89653730310168
H         0.90344342156506    0.60331112909250   -0.59562239993472
H         2.19992981960352    2.77891513465568   -0.60146426326421
H         4.30005319613826    2.96187593342328   -0.14090056941488
H         4.43181725255431    1.93790587914642   -1.48012980472312
H         6.00204351877302    1.21893019510950    0.46807132739273
H         5.02195127193759   -0.00822640458087   -0.22478625769101
H         5.00123928833523    0.82020966848307    2.51989936703848
H         2.67354345476514   -2.04960250360331    3.50058450565799
H         3.22179488377473   -0.43076247718823    4.10580589999477
H         4.90554472624431   -2.73309384273852    4.13880930132040
H         5.61073231913238   -1.16767698669509    3.91513513704290
H         4.62826792278616   -2.95294010518598    1.57669020530164
H         5.88324934548444   -1.60064267735828    1.59706489834703
H         1.64890225621739   -0.47880694978066    1.31573272718204
H         2.21240393032387   -2.15044451805828    0.94744825530810
H         3.85550111441030   -2.21209020105449   -0.64579582780200
H         3.70856095424753   -1.34904258454663   -2.15089552641593
H         2.29234110831843   -2.26580431789176   -1.61299950455484
