37
 energy: -49.572967998226 gnorm: 0.142162482530 xtb: 6.4.1 (79825abcba525fcdf90b791dcacef51065a7a4e7)
C         2.10958523920123    0.45403675005391   -2.35898010434590
C         2.06215025811555    0.46217335808639   -0.82457527246863
C         2.93229350427584    1.64423999728136   -0.31048258773948
C         4.46069560357376    1.43041953217036   -0.29824901941909
C         5.06128021243774    1.68763461076178    1.09442507118552
C         4.17015666680942    0.99212559045301    2.11358615588638
O         2.88451551173101    1.69407111373011    2.14768304509443
C         2.31150704388031    2.13856867613774    0.96850008933655
O         1.17954185000780    2.61867434466540    0.90009314157699
C         3.82003239945744   -0.52754935877178    1.86080773547879
C         3.95165604156719   -1.29407683895006    3.32084730961360
C         4.86162288215446   -2.35776955356568    2.69116258075472
C         5.00524102462337   -1.56707081803397    1.42670351521142
C         2.44872432723134   -0.88937154486118    1.18451604454777
N         2.61932302738512   -0.75871554136224   -0.25546087688720
C         2.43832403539286   -2.02900582747025   -0.95342391144228
H         2.17002568629309    1.45905935530073   -2.78826604860300
H         1.13831463089875    0.02959292318972   -2.64800313628776
H         2.86569790596000   -0.24030226808185   -2.73356185111146
H         1.06551682042701    0.68158123655021   -0.43081548061839
H         2.67824458025371    2.50983604697317   -0.93748010091754
H         5.02276794755935    2.03540787035675   -1.02542039127968
H         4.61743332144648    0.35814582529679   -0.42804063345703
H         5.07166810604743    2.76585489156399    1.31740122947885
H         6.12440597001768    1.43387764845053    1.06326321764722
H         4.53997139148819    1.10840735493797    3.13875507120933
H         3.04789779706341   -1.66045970280004    3.81511794392488
H         4.57012355153087   -0.78383053566875    4.07239385618778
H         4.44236548546797   -3.34583552465156    2.49129679650319
H         5.76393219035687   -2.64871172038002    3.23915434633252
H         4.76965038999428   -2.20585751463555    0.54656055089203
H         5.96364693122620   -1.06078684920649    1.31404467757488
H         1.64762502052909   -0.22416457164862    1.53747379704141
H         2.14251186280264   -1.88813920958924    1.51312978785721
H         2.87327904035790   -2.81274971050792   -0.31840561985848
H         3.11733217297941   -1.87681497626516   -1.79827217750251
H         1.43841487929329   -2.23400767664137   -1.34110755469005
