37
 energy: -49.576581007401 gnorm: 0.150184311765 xtb: 6.4.1 (79825abcba525fcdf90b791dcacef51065a7a4e7)
C         2.48244201865431    0.41531821331926   -2.41112164030384
C         2.17474917841815    0.31329309090343   -0.91057824648928
C         2.88804468031043    1.55832471003485   -0.31072168667101
C         4.43072183630932    1.51355765783177   -0.30573096352250
C         5.05638754295753    1.72432054879338    1.08370201122760
C         4.17074725875031    1.05725876107304    2.12638755128282
O         2.86260519166489    1.71229674230672    2.20671734064459
C         2.23507060868030    1.93292898188282    0.99266997822230
O         1.12892585594855    2.46293929527610    1.10248351116474
C         3.90240841563058   -0.49225401993281    1.97505911672611
C         3.99106507284212   -1.38066756515614    3.36770625939417
C         4.78509255948012   -2.39013357991471    2.52718057607818
C         5.16810387604657   -1.39735442782579    1.47248664439963
C         2.58972591004474   -0.77991224078417    1.16087917801258
N         2.73002809716065   -0.88041582619832   -0.28477734379380
C         1.93605446965103   -1.96476777309551   -0.85691125129642
H         2.00204087363837    1.27544970961146   -2.88798478457815
H         2.13193457490992   -0.47522787847748   -2.95068225697484
H         3.54765167420325    0.47291056279181   -2.64805208665473
H         1.11187262645061    0.29274489683669   -0.65302046572300
H         2.45195565568803    2.37160802352836   -0.90680881950241
H         4.86262318616015    2.15464367674907   -1.08879184391212
H         4.77514671185819    0.54465373171675   -0.67149065713251
H         5.10770339445409    2.79723941281458    1.32577026597746
H         6.09553124046137    1.38685927171397    1.12729434836400
H         4.54516078321196    1.32005359880751    3.12238407646027
H         2.96905210150444   -1.59418015033886    3.69208365731655
H         4.63416018124076   -0.78141829115097    4.02725501125907
H         4.11331857115376   -3.18128791648154    2.18837091065911
H         5.63780841661180   -2.94543784745721    2.93167686844522
H         5.13672713100368   -1.77612024916851    0.42665922849477
H         6.09240881878625   -0.93115420186980    1.81289093645324
H         1.78915738796995   -0.06289687224963    1.39286753163935
H         2.19683328125782   -1.72366792491282    1.55362657602189
H         2.19735068976433   -2.90645116245166   -0.35526870082112
H         2.17837457646015   -2.00034407519015   -1.92368113883185
H         0.86394645338414   -1.75828216320227   -0.84738286380467
