37
 energy: -49.579613392573 gnorm: 0.144851766110 xtb: 6.4.1 (79825abcba525fcdf90b791dcacef51065a7a4e7)
C         2.04234427988695    0.51296112922802   -2.34814736044213
C         2.04943428433185    0.38832496600374   -0.81807218151903
C         2.78763559955679    1.64180950400970   -0.26801995394336
C         4.30184366467842    1.41557824688486   -0.46263549107841
C         5.07367947946817    1.54500661705706    0.86172109952780
C         4.24673630205862    1.01261705755341    2.02329316147299
O         2.99945338235724    1.75499664986553    2.22309598536451
C         2.30003629996080    2.10142146214635    1.07976976793546
O         1.34622576070086    2.87642818840679    1.15810366928390
C         3.86896809911008   -0.51738351597425    1.91245385914750
C         3.82494464233807   -1.26162142581137    3.38919913027164
C         4.79785459591619   -2.32784866659861    2.86709722898763
C         4.95604274594067   -1.67651625827300    1.52716066494865
C         2.59102224767671   -0.90105559355968    1.08274200955695
N         2.75568367624028   -0.80192072571075   -0.36043759023694
C         2.53286386322903   -2.07786185183971   -1.03562351788756
H         1.56517040730371    1.48042064738959   -2.53345006662667
H         1.49491361605093   -0.30325795414366   -2.83922734024465
H         3.06357680455980    0.54809182321095   -2.73541276417978
H         1.02798685669263    0.34352095154579   -0.42935305392604
H         2.45674945723366    2.49146224556027   -0.88082322363413
H         4.66230803952043    2.21868550823155   -1.12278592239706
H         4.52609115705709    0.42898761332894   -0.87194644907450
H         5.13569800561635    2.62311452385115    1.07671484465424
H         6.07017165411455    1.11168345348004    0.73992444166967
H         4.74733922993068    1.19019491264974    2.98199985059498
H         2.90475726402729   -1.61850464945925    3.85952708185182
H         4.31092798323602   -0.71604766486376    4.21007977236239
H         4.25421696829853   -3.26152620888557    2.70992904317798
H         5.70625802546599   -2.58745615932474    3.42073209771729
H         4.79113022571383   -2.20722500510778    0.56313000097615
H         5.96494825497471   -1.26824192840436    1.47257949718151
H         1.80174965164551   -0.32740074723159    1.58950476569180
H         2.37014422600970   -1.90694006103166    1.45516552390569
H         2.94632065744777   -2.88844259690734   -0.42023672752143
H         2.97116144549111   -1.98459321845676   -2.03421196642259
H         1.47555660855025   -2.22225798464565   -1.26669454527792
