37
 energy: -49.559867872787 gnorm: 0.147920185189 xtb: 6.4.1 (79825abcba525fcdf90b791dcacef51065a7a4e7)
C         0.86368591628058    0.45295464256288   -1.21181674193363
C         2.08274115268706    0.29104805821358   -0.29290160650544
C         2.84707540220938    1.64521531002566   -0.26558413697482
C         4.35729840459666    1.64775728606395   -0.58354929036307
C         5.24028701306291    0.86929626306423    0.40676991642410
C         4.52349217348035    0.58198834543598    1.71832724059146
O         3.62958950873182    1.71185972395821    1.98495798606440
C         2.68488980460069    2.22610273410494    1.11347314507349
O         1.83840557393420    2.99722080992510    1.56664806869857
C         3.91642221074012   -0.87396227520948    1.63132320873096
C         2.80608828044088   -0.95956146930651    2.85461222984935
C         3.85152084803988   -1.67213785081741    3.72368665099293
C         4.80716988466386   -1.85919920631228    2.58507769186871
C         3.58067477412387   -1.68567042107244    0.32856649502874
N         2.78047546103773   -0.94246133822765   -0.63425730857564
C         3.08737311336006   -1.10300453636215   -2.05326756269909
H         0.06038823358019    1.17105517110117   -1.01932166284192
H         0.43265731398222   -0.55183092595129   -1.31986196023786
H         1.27326776535239    0.77527936685310   -2.17227184400962
H         1.78674980432985    0.13316248751371    0.74821608807222
H         2.35363891456720    2.37318250891782   -0.92399694736990
H         4.60354059397320    2.71950453521941   -0.54564093983586
H         4.64759685365678    1.28463695499464   -1.57099746723863
H         6.16416544381459    1.42065939333122    0.64093352654000
H         5.68151517541183   -0.06771795756313    0.05616743687891
H         5.17833204314367    0.69703930252800    2.58965020372979
H         1.95349939640075   -1.53442888650238    2.48321153205689
H         2.48487849629802    0.01824491217541    3.23983231378967
H         3.45113981283434   -2.65929393630924    3.96288395893815
H         4.07339541038000   -1.12660044627417    4.64686866326877
H         4.94551971968738   -2.92104082070312    2.28249754975954
H         5.80283233130590   -1.43083180422318    2.69783859484135
H         2.99822797756267   -2.57402353608155    0.61215782418032
H         4.50960219068616   -2.02906448113343   -0.13883511908373
H         2.14648378528426   -1.24761647533326   -2.60144929333573
H         3.75254688111038   -1.94820882132929   -2.25613759582609
H         3.54729523089091   -0.29171752473299   -2.62109473702593
