37
 energy: -49.583341560658 gnorm: 0.125992656504 xtb: 6.4.1 (79825abcba525fcdf90b791dcacef51065a7a4e7)
C         1.71338585981820    0.53611556739909   -2.25271162396373
C         1.96454567327651    0.46864645914582   -0.73974065984536
C         2.70720146667402    1.76116202018098   -0.29635821000700
C         4.21730343074121    1.88525148007636   -0.58974480672758
C         5.14489652201893    1.01343449927143    0.27391530701030
C         4.52201330630211    0.85264779400857    1.65329467102492
O         3.53102340113877    1.88212329806500    1.97715033247029
C         2.41033839366183    1.94908401480352    1.16723019312677
O         1.30894822267390    2.12876598033485    1.68797989213269
C         3.92207816206874   -0.58984833783433    1.88819596874525
C         3.50838148280440   -0.89827678293156    3.45992484373893
C         4.18435969940073   -2.26447812836129    3.27955844558606
C         4.97896862545713   -1.82124151791850    2.08925371132532
C         2.67128576173677   -1.01656625888462    1.03837141988182
N         2.80731816701342   -0.66076939463664   -0.36683753339945
C         3.07543608873069   -1.74839776776399   -1.30424231813596
H         0.87361591703713    1.20707450242106   -2.45913463209102
H         1.45633020254571   -0.49095311555560   -2.54614948892723
H         2.57352504702492    0.85632956986730   -2.84579516882043
H         0.96040336545376    0.52792395699499   -0.31003239015250
H         2.13394036277484    2.54526147078593   -0.80966417961713
H         4.42135447319718    2.95530360638394   -0.43461246803643
H         4.48231139271206    1.82328841901261   -1.64668133546432
H         6.11387402531497    1.51235482469398    0.43058808617294
H         5.23604613060906    0.03657286908296   -0.20881976287401
H         5.32655057199499    0.96285906634238    2.38938499157118
H         2.44770412339797   -0.96675965290924    3.71603509627331
H         4.05124221476070   -0.34651109449785    4.24000971661846
H         3.49092362301571   -3.06762425686331    3.02245891795506
H         4.79875734803292   -2.57838978614738    4.12989920744976
H         4.97689163951351   -2.54592411257060    1.24484039109204
H         5.98162188644621   -1.49694196264599    2.36687502103008
H         1.80256393477226   -0.46756197376583    1.42921189416700
H         2.45889590075713   -2.07807065076661    1.20386730241856
H         4.01652107813153   -2.26424124108318   -1.06982151843610
H         3.21882611577074   -1.26470252485857   -2.27556147430539
H         2.32795645720942   -2.54427111560416   -1.30266196372798
