37
 energy: -49.579009889745 gnorm: 0.134526198015 xtb: 6.4.1 (79825abcba525fcdf90b791dcacef51065a7a4e7)
C         1.82936000705575    0.69037965035429   -2.37632094248660
C         1.99720656473280    0.51154718051639   -0.86088009849528
C         2.73650400640652    1.72180725699244   -0.22257614444436
C         4.24981742936394    1.88377209898970   -0.47856778095335
C         5.08660354694400    0.92279554141226    0.38324174049354
C         4.40766650166098    0.58732945471138    1.70348047172498
O         3.37628245298532    1.55599798998945    2.08386386565482
C         2.36509092720329    1.93954767612303    1.21970496796005
O         1.39647528746537    2.48986682696450    1.74454660414017
C         3.76450183160653   -0.84940160448122    1.83778985743917
C         3.45723651830310   -0.96375429330477    3.45924482720688
C         4.79915976848723   -1.70081539840539    3.56864146116978
C         4.89935454935646   -1.99631200304273    2.10326432217297
C         2.55778967960056   -1.11079215432712    0.86604279315611
N         2.76528473118761   -0.67603119857752   -0.50787028856763
C         2.84544849405158   -1.74802206146421   -1.49678879129535
H         1.20822496996123    1.52467437293361   -2.71713391981338
H         1.43884199356095   -0.22424683264032   -2.84323372275508
H         2.87604599360216    0.82199770538352   -2.66136420865307
H         0.98581449411157    0.47132846979769   -0.44623164994017
H         2.18389211790797    2.60517556836454   -0.57071950406483
H         4.56872139330179    2.85289599763940   -0.06648336998746
H         4.45273567316905    1.83648791838156   -1.54990893380624
H         6.05860698377206    1.42040845036729    0.52457810806417
H         5.21029644811066   -0.01826875050558   -0.15961930585842
H         5.20381840143459    0.67324520480664    2.45182287174456
H         2.58602265007588   -1.56441179560330    3.73404619948085
H         3.35053695758690   -0.02079886547379    4.01343417228366
H         4.94580931002270   -2.55716275530852    4.22982266085316
H         5.60457449310700   -0.98486536900255    3.76313333501865
H         4.49566892407608   -2.99632136285394    1.82899759934959
H         5.86046323111753   -1.95939884369071    1.59095106450111
H         1.65840531352264   -0.65299664003258    1.30235761580977
H         2.31488657728553   -2.17781835436412    0.90779320470636
H         3.54242374810151   -2.54212422239876   -1.19626289705853
H         3.21380747480810   -1.34642928217726   -2.44600825696694
H         1.87972124042170   -2.21381110292810   -1.70307530975590
