37
 energy: -49.576983126069 gnorm: 0.147157777042 xtb: 6.4.1 (79825abcba525fcdf90b791dcacef51065a7a4e7)
C         2.32974493189772    0.58465234405267   -2.36872024005123
C         2.09431882702872    0.36925375607560   -0.86709028726568
C         2.80413768158835    1.62667676512490   -0.28936481085997
C         4.32397795560676    1.40383361232969   -0.43872460057090
C         5.10651852360516    1.60010256039485    0.87105071595753
C         4.28064149633023    1.00750421118342    2.00386917764299
O         3.08725875439838    1.84145632206375    2.16856537239790
C         2.25143718156608    1.95709628969250    1.07110513963572
O         1.10136123549292    2.35754723880667    1.25410934313843
C         3.85372412147529   -0.50934645973231    1.89072528254706
C         3.87628036215271   -1.30436050609970    3.34125919016419
C         4.88309199554413   -2.30544918428441    2.75804696674397
C         5.15140477551784   -1.44746800188315    1.55947951426781
C         2.52787050799148   -0.84357262336637    1.11666024105623
N         2.70215664619907   -0.84139444244744   -0.32879058041108
C         2.10623293867963   -2.03647546283922   -0.92057328528141
H         2.14673294086930    1.63603891122522   -2.61183094699996
H         1.74563551795523   -0.14356610732619   -2.94800217117695
H         3.34395523304421    0.23205503855417   -2.57164175403949
H         1.06411438662316    0.48750874765344   -0.51901070753484
H         2.59430286449095    2.47637757914035   -0.95336868505330
H         4.77599776189977    2.02580550146890   -1.22583545272381
H         4.55626170497656    0.36613669397888   -0.68451486294419
H         5.28594380598094    2.65608671040349    1.12617677639862
H         6.11504623948529    1.23270640286211    0.66250345387480
H         4.84639855614219    1.11673899273678    2.93620089046788
H         2.87003786194060   -1.63782317066084    3.60883631781349
H         4.25203102620304   -0.63995100794287    4.13185834705675
H         4.31369240769387   -3.23613580099380    2.71799708834023
H         5.69477741904187   -2.53810188908931    3.45528717097519
H         5.05897167332676   -1.90539239527347    0.54954663827172
H         6.07174478320402   -0.86456722579316    1.53194193016424
H         1.75398214157232   -0.16140326300603    1.49689880613184
H         2.18192867676707   -1.85842593066154    1.33956594018821
H         2.65784451665330   -2.91647437535466   -0.56278123473517
H         2.00032460528985   -1.87648580969059   -1.99814900750651
H         1.08459471211191   -2.18072503766068   -0.56337573126245
