37
 energy: -49.578405976543 gnorm: 0.143705500821 xtb: 6.4.1 (79825abcba525fcdf90b791dcacef51065a7a4e7)
C         2.06397146129155    0.50723114244527   -2.43909059690242
C         2.09126817620167    0.50985904521843   -0.90417612132790
C         2.66072823874976    1.80446345221202   -0.25730925255558
C         4.19003110053748    1.97296986431530   -0.37863609051988
C         4.98011601995747    1.00306552525590    0.51660352966401
C         4.26721060654799    0.62660560682342    1.80755941238478
O         3.32019967065698    1.68367520005348    2.17161636405630
C         2.37340598269210    1.98826114280478    1.20870496731543
O         1.34692387145587    2.58789724692931    1.53010376916266
C         3.62183373010692   -0.81170484352837    1.91074685055312
C         3.55428053426330   -1.25162589100202    3.50401730464714
C         4.92345662670531   -1.93110437424728    3.36383699047938
C         4.80803486577501   -1.93644623568177    1.87007105253849
C         2.41754250924979   -0.95636563666072    0.91198386156009
N         2.87718172784955   -0.62189062196527   -0.42837680534807
C         2.88672988860566   -1.78538669962616   -1.31140351466309
H         1.69125946240039    1.43388243113937   -2.88676576764030
H         1.52675276157901   -0.34253767867544   -2.88219609366892
H         3.10866102831239    0.38741511305942   -2.73639911288109
H         1.05416420565737    0.49372103056439   -0.55687262205088
H         2.21918517672773    2.69679240800469   -0.72175732517425
H         4.27431035110445    2.99082369769977    0.03073539856107
H         4.54891187138233    2.01942634161397   -1.40831072618070
H         5.98368775319377    1.40301174361216    0.72937581965598
H         5.20543266106547    0.17832200437177   -0.16503462754825
H         5.00089741611293    0.75384327521512    2.61177949731815
H         2.76688677255797   -1.98976440927414    3.67860659560953
H         3.47480603928169   -0.34525063110811    4.12033155648113
H         4.97052880321969   -2.94329084384164    3.77035909681063
H         5.73442640468909   -1.30185938308737    3.74525955166342
H         4.36703116684170   -2.88744017049260    1.49680263134318
H         5.73387894295955   -1.80298477059487    1.31100206229978
H         1.70061989600702   -0.23912074372694    1.33674419125433
H         2.07745907740613   -1.99498869111580    0.98195055771703
H         3.67769884918865   -2.44778691485003   -0.93419982379210
H         3.06093294122535   -1.39326075813930   -2.31831624198241
H         1.96429286619653   -2.36859756698266   -1.27797125837510
