37
 energy: -49.576209386978 gnorm: 0.144782649313 xtb: 6.4.1 (79825abcba525fcdf90b791dcacef51065a7a4e7)
C         2.44328691504574    0.60843243780110   -2.45223346182691
C         2.13325140092318    0.44356121483303   -0.95777371785317
C         2.57437949481838    1.75206451526910   -0.24226886596836
C         4.08834934392790    2.03255454856626   -0.34763732688002
C         4.98395976687492    0.94212148729680    0.26493130288157
C         4.43238622118027    0.77069130400266    1.67308670986791
O         3.42949822500142    1.77827676840823    2.02769989277670
C         2.31510431281854    1.95721059486617    1.22614007666696
O         1.27504390191902    2.35988235502403    1.74830475768937
C         3.85047139233614   -0.68965737996256    1.83009882813299
C         3.59596678635526   -0.98653320116037    3.43748704714437
C         4.67913790198941   -2.07016150471970    3.34542870714678
C         5.07596031357526   -1.76734014294236    1.93280044909922
C         2.56475910066754   -1.00464226652350    0.98363557699300
N         2.79344622153018   -0.74428101868669   -0.43044457569334
C         2.37218066382781   -1.98275189865804   -1.08027199697086
H         2.20868629925783    1.62802352584714   -2.77380222685812
H         1.80208073100743    0.00504560004670   -3.10937303513173
H         3.47112314543125    0.30215934519668   -2.66169467006994
H         1.05831886451990    0.43527150648437   -0.75549638338741
H         2.08052710688356    2.64446734975785   -0.65049705931801
H         4.32527922756485    3.02188614894048    0.07164974246582
H         4.18725838370630    2.19877918798495   -1.42177412491398
H         6.02390676813173    1.29501901750133    0.18518903864447
H         4.98748951732514   -0.02180920148986   -0.25123264244658
H         5.20599025199127    0.88404433690079    2.44116457170464
H         2.62748612256690   -1.43386308718006    3.67677769119404
H         3.68879399091826   -0.10206058314194    4.08306187984289
H         4.26453316383620   -3.07886621935540    3.39656746899737
H         5.52504169673795   -2.10681011584146    4.03984073198930
H         4.96573869845407   -2.65643845597365    1.27283194736734
H         6.03817477905660   -1.28220459044916    1.77049154779005
H         1.66132679738256   -0.57423663297741    1.43904820003627
H         2.45282356479374   -2.07647117618404    1.17842562333046
H         3.15541234631197   -2.69618746853589   -0.79001971300722
H         2.40585262078262   -1.75164716589238   -2.14958930364352
H         1.33704833294815   -2.16943693856935   -0.78736851406619
