37
 energy: -49.579959256903 gnorm: 0.135864918553 xtb: 6.4.1 (79825abcba525fcdf90b791dcacef51065a7a4e7)
C         1.96503849523409    0.76824781817157   -2.37946679101640
C         2.03348442223377    0.46435371869848   -0.87624425159902
C         2.70643290637637    1.71002130655602   -0.23268020591386
C         4.21512472830570    1.91245469147864   -0.48714347534695
C         5.06742567526228    0.95409972367993    0.36229248128483
C         4.47849584522528    0.74817989075512    1.75055829901186
O         3.56173415344955    1.83750547989082    2.09650779863744
C         2.47266546066091    1.88866746885889    1.24345383063028
O         1.35956317519361    2.30285698182583    1.56899417771333
C         3.82929273823344   -0.68612456041836    1.88171458423926
C         3.43107625225870   -1.11180174696728    3.42988359250924
C         4.75278070574727   -1.89021899096404    3.48599632382376
C         4.91514139740121   -1.90329078277708    1.99664897372392
C         2.62126951695981   -0.98010181111982    0.92097068035379
N         2.80606952417163   -0.71253899237134   -0.49817255943771
C         2.57064779016084   -1.93940818188532   -1.25508672099871
H         1.34462341041750    1.65654535443538   -2.53445879267344
H         1.43475809682099   -0.03003440221220   -2.91668337703684
H         2.97800798384578    1.05753836226814   -2.66986018264555
H         1.02949826835259    0.43378388384102   -0.44318295675976
H         2.27361622919918    2.56782702662162   -0.76537367050241
H         4.62612104472618    2.89543814110323   -0.21229809326745
H         4.46533038498526    1.81539952114904   -1.54504748662167
H         6.07060563671240    1.40710727633200    0.33401922605965
H         5.09163477201833   -0.01465389372349   -0.14419581685112
H         5.23048976569758    0.63573497297480    2.53993588805110
H         2.58032634982083   -1.79434093891877    3.35449333475666
H         3.36845804885706   -0.23519400956566    4.08966643512441
H         4.67798455196700   -2.86144141617729    3.97907846535531
H         5.44161925621961   -1.26152131470827    4.05988228318670
H         4.43264705280290   -2.78682979913502    1.52255926227339
H         5.88530087468142   -1.67898798888092    1.55388921908718
H         1.74928822005223   -0.43254935244228    1.30655402399083
H         2.43971306582103   -2.04801961443514    1.08183940547528
H         3.21953190809360   -2.75227640455673   -0.90169852838901
H         2.83856455041191   -1.73890211999653   -2.29720025769265
H         1.53466975671691   -2.27831957507168   -1.19159442290637
