37
 energy: -49.584470461687 gnorm: 0.151752649183 xtb: 6.4.1 (79825abcba525fcdf90b791dcacef51065a7a4e7)
C         2.74096210433548    0.46697129321871   -2.41510496252957
C         2.25676121104167    0.48414498251961   -0.95840697299821
C         2.66682846312091    1.85046195308755   -0.33893552380923
C         4.17333497068695    2.18458458476951   -0.31281887513741
C         4.90606048985149    1.03150449315463    0.39423291699020
C         4.26824107926477    0.78823293442799    1.75457430316023
O         3.13195139787462    1.64619099200319    2.10028669700948
C         2.24518037792517    2.00074782290344    1.09813108260702
O         1.13110540250247    2.37219641022775    1.46879140270891
C         3.75529271514032   -0.69287990757858    1.95227279680499
C         3.85001516699995   -1.19759471546553    3.52481702461499
C         5.03349193448080   -2.09709577333732    3.14237057012090
C         4.91657607217127   -1.81052001254199    1.67646047312511
C         2.43463261143638   -0.95702196255283    1.14304013825710
N         2.66105645914715   -0.74040772258362   -0.27876117081764
C         2.16402454860741   -1.89486238427661   -1.02290105991431
H         2.47510231828711    1.40527932364099   -2.91200185749602
H         2.17762240866833   -0.28305150269806   -2.98709067851796
H         3.81904488940583    0.29739432210169   -2.47083360816484
H         1.16722853842667    0.47532784303801   -0.86194132830478
H         2.08891357602157    2.60905399651729   -0.88434890080001
H         4.28870956033675    3.12777069362483    0.24198118052164
H         4.54604699698694    2.33833560013146   -1.32703278386241
H         5.93722953447979    1.38610154324298    0.54699613847066
H         4.99425546377078    0.09040589682531   -0.15545347701608
H         4.98887080624928    0.97676929822782    2.55856594024649
H         2.91919573145605   -1.74707049510424    3.68904365229223
H         4.01431884150554   -0.38483368899616    4.24599618582832
H         4.91169055922291   -3.06760614484342    3.62741851207069
H         5.98849395004060   -1.77712131402955    3.57212853281689
H         4.41529778265482   -2.59866713125018    1.07169006795360
H         5.81225510720034   -1.44919207224739    1.17172435452949
H         1.73886993673661   -0.23477925065980    1.59372780062027
H         2.15472579516622   -1.99814507829044    1.33540636728728
H         2.33414248190135   -2.79600447037328   -0.41817682921515
H         2.89157305191183   -2.00795974148563   -1.83275590000376
H         1.13133122178243   -1.88561361612023   -1.37730428090684
