37
 energy: -49.583623056344 gnorm: 0.133780262073 xtb: 6.4.1 (79825abcba525fcdf90b791dcacef51065a7a4e7)
C         2.62693713441235    0.40668223214172   -2.47108834922325
C         2.23603817203972    0.45886923094200   -0.98744789672140
C         2.98663088339221    1.58789806454211   -0.22545933860625
C         4.52033277635444    1.41574745681712   -0.22333592725845
C         5.05178148505585    1.69072671441184    1.19382718261342
C         4.15369289929523    0.95125006955570    2.17522134591492
O         2.91871632955684    1.73387630239977    2.27057528148637
C         2.31197387979081    2.00055163686393    1.05519998467768
O         1.16414466246402    2.44585289656401    1.08205220923459
C         3.81900518524189   -0.56296584251287    1.87350919888961
C         3.80478880786388   -1.54441650508684    3.20510869227001
C         5.10898759481759   -2.17222858784765    2.69432281179798
C         5.09008020784931   -1.46269911423766    1.37489193728908
C         2.47972845906025   -0.81791571790310    1.09241380938066
N         2.55524012922199   -0.81833960371379   -0.36154845185261
C         1.67257948663360   -1.84524477263443   -0.90920384666190
H         2.74880943595546    1.42831305209835   -2.84448829380211
H         1.83709945931542   -0.07220771016579   -3.06596172877996
H         3.49336382970892   -0.23911915683756   -2.63347637550967
H         1.17661786572577    0.71835305311464   -0.90521918241547
H         2.87433400733702    2.50168175881794   -0.82488576411520
H         5.01084843505847    2.09424108686433   -0.93730735810960
H         4.61713665838918    0.40112033317596   -0.61364899129025
H         5.07968922768985    2.77681624451225    1.37275718586772
H         6.08774135469583    1.36036240433261    1.30892114613013
H         4.56865866594850    1.17219765054722    3.16529269538305
H         3.04094295983375   -2.32543572274737    3.24832134225589
H         3.87820918153403   -0.94827773350658    4.12538233589869
H         5.12785281883687   -3.26134611707639    2.62040006463810
H         5.97495659702831   -2.04925213373143    3.35316944713366
H         4.82090598827988   -2.07813994410589    0.48777251923099
H         5.98897022162539   -0.88895097760193    1.15046560861695
H         1.69534563579644   -0.18619567071027    1.53345004672965
H         2.27427451635459   -1.84517002992946    1.41151754248709
H         1.80337284739089   -2.75268579767379   -0.30411505065204
H         1.78147132213230   -2.03848966502973   -1.98101617903634
H         0.65093186169434   -1.51248126313894   -0.71517479400731
