37
 energy: -49.579694625252 gnorm: 0.138141357122 xtb: 6.4.1 (79825abcba525fcdf90b791dcacef51065a7a4e7)
C         1.66371849230011    0.49765747195184   -2.19091014468646
C         1.97758746227511    0.51122188181943   -0.68824027229106
C         2.63834437474785    1.88524842700268   -0.38136333448183
C         4.16334816905482    2.00127104311198   -0.58820635360088
C         4.97013175808804    0.96856618365615    0.21741359125805
C         4.40208950670285    0.69245316782430    1.60219258837627
O         3.32912629542349    1.60296175699954    2.01022119138757
C         2.41648925460877    2.09435459133369    1.09260691811946
O         1.52846539342488    2.85603854623190    1.47702511367819
C         3.89545964566947   -0.77036715103089    1.91743658123266
C         3.52879172021835   -1.08443481881313    3.49968840258079
C         4.33858120135832   -2.38595394081176    3.42048189857797
C         4.93680881248105   -2.01821167907050    2.09701042376598
C         2.65275962082922   -1.12156195985849    1.02237768200559
N         2.81424674150434   -0.63009867934685   -0.33853898322595
C         3.34933769833456   -1.58273769696132   -1.30792383024663
H         0.84451069957086    1.21739946465616   -2.28514373305673
H         1.33970701680860   -0.51818866616618   -2.45572452193774
H         2.48271479417375    0.74721048132278   -2.86994834117113
H         1.01666271818797    0.56889237775526   -0.16885357291846
H         2.05237042807907    2.67344133272462   -0.87361299407784
H         4.49494992257765    2.98482185489677   -0.22299065787289
H         4.27960347442216    1.80212118114974   -1.65498070502902
H         5.95979123723831    1.40503280401172    0.42346275627074
H         4.96441579637152    0.02401075226642   -0.33338801165966
H         5.15475398084095    0.85853204146566    2.38140352935100
H         2.47521708825289   -1.29071817357360    3.70644066279405
H         3.83301640494008   -0.26141644557016    4.16132550614113
H         3.71163414263309   -3.27530891903201    3.33113667522871
H         4.98883223205612   -2.60763170854665    4.27320516643301
H         4.88088877067375   -2.77066428332207    1.27915282239953
H         5.91347615967616   -1.54285494728966    2.18484111271098
H         1.78650670120697   -0.63032017726138    1.48834654525239
H         2.53140656888176   -2.20990810509607    1.03050301783539
H         4.23005610523066   -1.95877765660999   -0.76976251938057
H         3.66039370541606   -1.07942232428299   -2.22873894815236
H         2.71468169698071   -2.39974683462811   -1.65699474289352
