37
 energy: -49.575724108107 gnorm: 0.151994606483 xtb: 6.4.1 (79825abcba525fcdf90b791dcacef51065a7a4e7)
C         2.45747301833811    0.33421145915877   -2.40072493431258
C         2.13425911110236    0.43147812652511   -0.90313137448205
C         2.89210857403107    1.65765486429998   -0.31928470303080
C         4.43461403588277    1.66645394847918   -0.36909762306764
C         5.08739180625070    1.62800772197489    1.02331239959687
C         4.17672480039311    1.01322192178435    2.07652051975114
O         2.95658453218010    1.81847342507873    2.17445446334503
C         2.23097272867844    1.94405728226153    1.00223201398967
O         1.06592753295811    2.31999252981943    1.13590535399313
C         3.87510879794203   -0.53018485877071    1.92546017882859
C         4.00562616366318   -1.32341341750553    3.37126735835144
C         4.91366888870118   -2.31039335020268    2.62473287915306
C         5.03925250744910   -1.52630729248497    1.35425060528745
C         2.52110482137802   -0.82357325419451    1.18426647322692
N         2.64757063173558   -0.77459694861799   -0.26532526112495
C         1.94025507130462   -1.91200920048434   -0.84803320759750
H         2.67890735650911    1.34272383772952   -2.76387715101109
H         1.58962264377697   -0.23084805757855   -2.76759950197072
H         3.22949539496282   -0.42643387527914   -2.54045559166793
H         1.08079655016016    0.65786317849105   -0.71489944825100
H         2.57215557201260    2.49451502915190   -0.95506643629529
H         4.83278279720639    2.47884198368366   -0.99535774391621
H         4.70038015006005    0.68278742711128   -0.76018845317679
H         5.31005355354778    2.67175826419552    1.29422163254521
H         6.04856932945853    1.11833139545271    0.91391469582511
H         4.75043827979642    1.11436934268221    3.00489423243062
H         3.07303495499373   -1.65665271594247    3.83445634868790
H         4.61473944081646   -0.68995066295541    4.03110182623765
H         4.42128519062770   -3.28297086295002    2.56432808401313
H         5.86997290847377   -2.47300432264535    3.13281230728840
H         4.65037207796613   -1.99085918124424    0.42088754834042
H         6.06085032667512   -1.16241421245307    1.24711947114593
H         1.77183038893046   -0.17376550102151    1.65879499350340
H         2.27341105084858   -1.84810283856650    1.48138070361552
H         2.30462358386328   -2.75560563257667   -0.24614516188259
H         2.22845266070181   -2.16631128353762   -1.87285285076961
H         0.85023718510509   -1.86629433903598   -0.80428555710526
