37
 energy: -49.576997177849 gnorm: 0.134763744937 xtb: 6.4.1 (79825abcba525fcdf90b791dcacef51065a7a4e7)
C         1.84482324472041    0.61851405376748   -2.31034421908723
C         2.00283190438698    0.41854611462784   -0.79648802361476
C         2.76602287790139    1.64608383094911   -0.22254306772096
C         4.25668308550528    1.45665068840971   -0.57457870407751
C         5.08243926939222    1.47170908644723    0.72322812981136
C         4.30801773880247    0.90741714480067    1.90575475132811
O         3.12957012463291    1.73137256512990    2.18704106049246
C         2.34961368014392    2.16356471734536    1.12814204510870
O         1.35767805123616    2.88477856236433    1.23967886779155
C         3.95772615150030   -0.63180328192398    1.84257093350267
C         3.61662547157190   -1.24161993083561    3.34203040688703
C         4.68317633812348   -2.31410665312552    3.08082897903424
C         5.27914049334886   -1.59251724340306    1.91086195033915
C         2.72103612940733   -1.07989319608861    0.98316136252155
N         2.74509979311137   -0.78501099803376   -0.44238200055904
C         2.50025822971675   -2.02057420770848   -1.18196744095453
H         1.76309915916755    1.68506982451814   -2.54227066629118
H         0.90641673840525    0.11000836715557   -2.57086037988564
H         2.75300450640523    0.15675498330609   -2.70545165799904
H         1.02032127944673    0.39715270186747   -0.31619644221726
H         2.43349303692715    2.48664853622539   -0.84688123563072
H         4.58285947019214    2.20746893107156   -1.30983060664682
H         4.29224852618525    0.44069185600844   -0.97175150964339
H         5.27033525642681    2.52229603509697    0.99405542883888
H         5.98939586079111    0.92115194468157    0.45881061181145
H         4.94630726884970    1.11332384755751    2.77261379977304
H         2.61681307318557   -1.66007235697549    3.48552803478495
H         3.98127166474223   -0.50527647732036    4.07176120826728
H         4.25467015033670   -3.28885353704564    2.83948187870792
H         5.42657054762140   -2.56569532396178    3.84448636401708
H         5.47750617608168   -2.15453897967604    0.97118878402449
H         6.14634841474331   -1.01742859604226    2.23456061969825
H         1.87071432487086   -0.58170496909651    1.47060461303733
H         2.65823560032615   -2.15926762920774    1.15722129018042
H         3.30424660252841   -2.68698131025855   -0.84109673481838
H         2.55160850477806   -1.74818965578522   -2.24081233208906
H         1.48756455396502   -2.36588537525853   -0.96435675391666
