37
 energy: -49.581007245837 gnorm: 0.130365753593 xtb: 6.4.1 (79825abcba525fcdf90b791dcacef51065a7a4e7)
C         1.91814420874748    0.66105742634321   -2.39441365888114
C         2.03601746204380    0.52770614690743   -0.86960619750060
C         2.70963032489499    1.80407018149412   -0.29006962009229
C         4.23228668253313    1.88467271323693   -0.52861248552398
C         5.02873469047976    0.89943656556674    0.34396008803186
C         4.41949759801011    0.68894881201238    1.72274519793764
O         3.38059420598791    1.64650140083793    2.11073499488473
C         2.44400672414920    2.04383025030891    1.17194699317015
O         1.36643721534130    2.54360387449289    1.49690305712311
C         3.80510832637075   -0.75690674552069    1.88984839053700
C         3.60450358814101   -1.02381631395141    3.51007113704436
C         4.73206876082634   -2.06454548179612    3.47180519755865
C         4.95383759437062   -1.91560627473769    1.99758571118191
C         2.53377063434827   -1.02602499903014    1.00664544423702
N         2.71214974081734   -0.67315943077082   -0.39455947463165
C         2.77087498138719   -1.82701709722549   -1.28826763363378
H         1.32063625603602    1.53625220401385   -2.66832651860807
H         1.31896193381374   -0.17475533442773   -2.78100271068110
H         2.92985311241273    0.86243359015348   -2.75499271997473
H         1.00617076009331    0.52754609245973   -0.50098641627252
H         2.17131122624613    2.66176131870850   -0.71609980906068
H         4.45196402347593    2.92427741402674   -0.24281821911250
H         4.32313504559225    1.87508738464858   -1.61619612531203
H         6.05800321607452    1.28675621895053    0.39850406058075
H         5.15111156528940   -0.06587374230034   -0.15483842004140
H         5.23341798575470    0.70109667431870    2.45666735704524
H         2.65281574209558   -1.44472421156113    3.84540025518532
H         3.71614079263080   -0.16453759036912    4.18597998668821
H         4.33011537322845   -3.04999586586933    3.71535904643167
H         5.59062478155851   -1.91750191841559    4.13540459450605
H         4.64979249855529   -2.77300592819021    1.35678507438210
H         5.92009762594716   -1.50863506942775    1.70047739343618
H         1.66646677439255   -0.50744541566078    1.43988766961978
H         2.44972145083144   -2.11720629625585    1.04600332155424
H         3.70552393500251   -2.37639505548703   -1.11133896639049
H         2.83246720662585   -1.54968173616128   -2.34527954742393
H         1.87120747399492   -2.38808184634719   -1.02760038149272
