37
 energy: -49.570704779542 gnorm: 0.156235365941 xtb: 6.4.1 (79825abcba525fcdf90b791dcacef51065a7a4e7)
C         2.46310702846980    0.38920353759379   -2.42230486977152
C         2.24110716823405    0.35391882564077   -0.90369184113568
C         3.01786988712691    1.59804710022689   -0.38648140737879
C         4.53406205383704    1.35262764429188   -0.23544349993705
C         4.99298369142455    1.71525710211561    1.18733315562701
C         4.07517653611169    1.03974336256604    2.19621101876713
O         2.79468269221657    1.74291994103196    2.08377647391235
C         2.26559601497667    2.04084357964136    0.83971134661869
O         1.16258182530762    2.58617954507974    0.78976587623997
C         3.87100986978822   -0.50318746923250    1.92496140108248
C         4.14039654757400   -1.41713245286278    3.27727057893727
C         5.01425642303754   -2.31916819260801    2.39483919438885
C         5.17755284334835   -1.28254260631524    1.32552676446499
C         2.49259230887653   -0.90205616547883    1.28492983986779
N         2.58798774725381   -0.85522174746367   -0.16710828024015
C         1.71514085920616   -1.94731687177788   -0.59021230792734
H         2.26899990369405    1.42284147341123   -2.72549615269526
H         1.66633751638109   -0.21473307096848   -2.87779623776179
H         3.48821412444852    0.15756164199819   -2.72167420276434
H         1.22039819809768    0.64619881138920   -0.64065111845009
H         2.89333812190390    2.47841528268161   -1.03174644078876
H         5.11925703240160    1.83023796552149   -1.03553701642140
H         4.57959378959572    0.27359134055021   -0.39289509269885
H         4.98606026851374    2.76626130323211    1.51555182461666
H         5.98977598613172    1.29777364223013    1.35380458063442
H         4.38163892779321    1.09474847889468    3.24707301803152
H         3.26225360853403   -1.89368996208608    3.72120385329448
H         4.68912784113417   -0.75569523423790    3.96215768223694
H         4.58049034445808   -3.28420367636170    2.12548632640084
H         5.95526709328656   -2.62008950693964    2.86712056484987
H         4.88220267995105   -1.66305542506724    0.32244086652904
H         6.10215968944521   -0.70723178614581    1.36647795393356
H         1.68903177359104   -0.27155002871714    1.69185990173981
H         2.24275840311258   -1.93684944215645    1.54198201927383
H         2.13813031953701   -2.94188439159344   -0.39373347795220
H         1.65424031034362   -2.10241409236730   -1.67197876727895
H         0.71469867037249   -1.82518902557605   -0.17028027721525
