37
 energy: -49.577389758360 gnorm: 0.133563789598 xtb: 6.4.1 (79825abcba525fcdf90b791dcacef51065a7a4e7)
C         1.81854602031442    0.68117252336009   -2.33077736886164
C         2.02906285680248    0.51382647016273   -0.81935670643832
C         2.69076529747432    1.79323571343055   -0.23285526890796
C         4.19223909429887    2.02751270504600   -0.50224824684060
C         5.04787826398135    1.00770978419551    0.26865136303437
C         4.49415427590599    0.72772675418020    1.65844362829337
O         3.53283805312287    1.74135833163749    2.10024159246127
C         2.47292652294490    1.98582213042877    1.24396229030905
O         1.36871519994235    2.30563091477231    1.68551167904072
C         3.83621593222704   -0.68568018229579    1.91397025129103
C         3.48778970588411   -0.96486743028847    3.50684762782614
C         4.48643612377181   -2.13022127280647    3.53215479905716
C         4.91962159166817   -1.89337830019129    2.11760782327634
C         2.72200946802973   -1.05379273923798    0.86907377612183
N         2.80563303168973   -0.68715937447482   -0.53744514623643
C         2.80515978352802   -1.87167089966380   -1.39212791925609
H         1.36232196688294    1.65262396136762   -2.54560665322248
H         1.35002464808797   -0.25215129683594   -2.67202191072383
H         2.78719067818916    0.53895556134854   -2.81619099345918
H         0.99244097583618    0.47317840541218   -0.47261818404378
H         2.08581967174519    2.57426680811867   -0.71343250177970
H         4.36317694864517    3.08649663603005   -0.25720190828061
H         4.43613155260482    1.88567558332114   -1.55656422320682
H         6.06977294328261    1.41685086919732    0.29548591196506
H         5.11432266716597    0.08382842675542   -0.31240665568251
H         5.35108891704846    0.86303983937567    2.32822648997095
H         2.43426757922062   -1.21085577435409    3.66464398438949
H         3.81634370354859   -0.08036680607070    4.07021826859262
H         4.14454495083522   -3.13010555326814    3.80663487173353
H         5.30700858651460   -1.85148492464426    4.20153607400559
H         4.71659769608350   -2.79043402129243    1.49128892438534
H         5.94893374824675   -1.56465673654826    1.97613001106100
H         1.77985574737244   -0.61875873656438    1.23229735752111
H         2.49955470810785   -2.12313139552372    0.94856357074014
H         3.40909452970966   -2.63712493659322   -0.88613236847533
H         3.11495107555700   -1.64161750088024   -2.41637763145117
H         1.87821123852276   -2.44081007297814   -1.48694181713339
