37
 energy: -49.576894883784 gnorm: 0.141985722489 xtb: 6.4.1 (79825abcba525fcdf90b791dcacef51065a7a4e7)
C         2.39094583928973    0.39524448773939   -2.38566719240670
C         2.08524867434154    0.41503428579200   -0.88138261135065
C         2.86137760979096    1.63044934036238   -0.29904916596597
C         4.37382766549376    1.32326112282112   -0.30252801762126
C         5.03770365775349    1.64238344263172    1.04796531100574
C         4.20727564983245    0.93083124813465    2.10655216986707
O         2.98131901843784    1.72647756060053    2.21018914825402
C         2.35288750105148    2.10434021348175    1.03601586120359
O         1.29682296011374    2.71391925786325    1.20825771679493
C         3.68918908278761   -0.54952548360253    1.91674645709953
C         3.90965001339798   -1.45555855727825    3.28316724915185
C         5.16204491442370   -2.08341092621835    2.65603638676839
C         4.89204523622386   -1.47785444598875    1.31250041023702
C         2.31290136803082   -0.86952230990091    1.22957414875221
N         2.52503057289923   -0.80137953665688   -0.20919832481081
C         2.13965231154462   -2.00526063105035   -0.94111660719961
H         2.52139660403771    1.39412191048110   -2.81372840710472
H         1.57060132701347   -0.05124679494797   -2.96422910462705
H         3.32723663865082   -0.14834714837501   -2.53396487179580
H         1.02900612247659    0.67388217583984   -0.76384858117075
H         2.82116231823327    2.46780780420558   -1.00907507823464
H         4.83535435586949    1.70888803256749   -1.22393966691424
H         4.59349592978721    0.26187002361286   -0.43050566279181
H         5.06532117332812    2.71843766020739    1.27976232919656
H         6.06853266704633    1.28559846520022    0.97249287661924
H         4.66699915204241    1.03500998270600    3.09602516283899
H         3.01669920906246   -2.05682107639801    3.47406272111643
H         4.04971953167263   -0.87894938862265    4.20814182323322
H         5.23611135278761   -3.16970949437209    2.73645432969644
H         6.14065854180847   -1.79289664899796    3.05229543612726
H         4.75668585232173   -2.22402486802868    0.49818439300883
H         5.68210594990473   -0.80232153649841    0.98536630506575
H         1.54607837388181   -0.15595235992638    1.56369990929505
H         2.11398147889817   -1.89853256420121    1.54715675740852
H         2.50879905201958   -2.83323617577399   -0.32073305714296
H         2.59685855659312   -2.03430900770406   -1.93514947310946
H         1.05404212863382   -2.02814237010699   -1.05543918433110
