37
 energy: -49.573566578969 gnorm: 0.149531864897 xtb: 6.4.1 (79825abcba525fcdf90b791dcacef51065a7a4e7)
C         2.27233695598303    0.29340934761019   -2.39735623299793
C         2.12175840708319    0.39685961455204   -0.87310605104818
C         3.03633560703131    1.53213558930870   -0.33142432256228
C         4.56733235767963    1.37519707007591   -0.21609404155580
C         5.00626262935927    1.71885485113641    1.21765703102550
C         4.07087618478020    1.08364837254039    2.23652318663989
O         2.78908737545579    1.78919177730321    2.15913292487329
C         2.31643887629613    2.05058401194432    0.88450876907766
O         1.28892130818459    2.72865069196119    0.85353468512678
C         3.88415848564499   -0.45736422229036    1.94273315767285
C         4.13988889144010   -1.38864246861499    3.28583683899175
C         5.00005470454250   -2.34879859085641    2.45265036731049
C         5.09426504633023   -1.36707726030700    1.32480506227841
C         2.56437298765203   -0.87769883203447    1.20094030852275
N         2.52838216856400   -0.85883946788316   -0.25441442822409
C         1.82490385891919   -2.03266615311225   -0.76509987805462
H         2.27929577778723    1.27637915048495   -2.87874157616243
H         1.56227997639094   -0.46260959063881   -2.75972057770564
H         3.25961330358253   -0.15797430771659   -2.52250710035592
H         1.10159658912634    0.65844305543448   -0.57762548413281
H         2.90662006107858    2.41411034781815   -0.97346611243625
H         4.88318147272278    2.13286542950781   -0.94882347565414
H         4.84830978203907    0.40770441365434   -0.63584767619731
H         4.92447420823634    2.79031803428849    1.45778733161657
H         6.00218441751159    1.29504905380605    1.37299049683029
H         4.41275364133354    1.14947942551750    3.27577376706967
H         3.18371475703491   -1.69323089300920    3.71974437312467
H         4.72046030633352   -0.77247555984399    3.98651560989711
H         4.45683414689921   -3.28344762698918    2.29987580968253
H         5.96302904260284   -2.59610754199461    2.91158730798809
H         4.85786831232892   -1.79466212472274    0.32505969487213
H         6.07000386825103   -0.88191988315555    1.33545511926541
H         1.79074233465087   -0.24606457617800    1.66069390473902
H         2.31939176467366   -1.90295984486578    1.49778029743410
H         2.38566956007586   -2.96769116491042   -0.63109011885973
H         1.82839456895280   -1.99290774915682   -1.85889591856621
H         0.77918954660026   -1.94376611821607   -0.46390052241950
