37
 energy: -49.580133538970 gnorm: 0.143773792617 xtb: 6.4.1 (79825abcba525fcdf90b791dcacef51065a7a4e7)
C         2.12831014077953    0.50802954760614   -2.40801296071110
C         2.06322085515285    0.38572985135479   -0.87911773799066
C         2.62455933892166    1.72857907559319   -0.33105104619778
C         4.08532041430167    2.21366115228731   -0.44398583609498
C         4.90876222032085    1.18164954557494    0.34550653876244
C         4.36664209836650    0.84501227384253    1.72728235003659
O         3.21465101896780    1.68213494537839    2.07210906498685
C         2.22568356248463    1.83849358431570    1.11613596636098
O         1.13546630739662    2.29436337895755    1.46274124254826
C         3.95524273798965   -0.67559908248877    1.84723045527623
C         3.78873713998629   -1.01281993757771    3.45818132055176
C         4.89661735673177   -2.06063909731220    3.28307810929395
C         5.13581669030667   -1.80677809019778    1.82601748629247
C         2.58743540293856   -0.97283375043595    1.13341941314454
N         2.73607347575479   -0.77083871299717   -0.30073996739083
C         2.57802967635215   -1.99562080674870   -1.08079214399775
H         1.41779627608374    1.24366839298923   -2.79790452827336
H         1.89227760721626   -0.42966312022159   -2.92962062684789
H         3.16480125252123    0.69627318889748   -2.69848675270193
H         1.00468894988868    0.34466327367928   -0.60655852826793
H         2.03451699154114    2.52219801676913   -0.80953014392716
H         4.15169977378193    3.22323015902382   -0.01145998420632
H         4.41087573991489    2.13690745333229   -1.48288239753759
H         5.93001260960188    1.57855418227940    0.45459182067496
H         5.08966455981557    0.29689655109984   -0.27100502907141
H         5.07900962229851    1.01689143614969    2.54229508030135
H         2.76353693741927   -1.34842836550367    3.63608680167464
H         3.98157649204979   -0.21961399244633    4.19392099674866
H         4.68320723717016   -3.08782915529134    3.58529353812883
H         5.78576710888292   -1.89232436370555    3.89967139328367
H         4.94159458454882   -2.66813872845514    1.14886266921319
H         6.10875605464472   -1.32315912679542    1.74199938797537
H         1.78126796215156   -0.47016150622570    1.68682183542347
H         2.37184760465723   -2.03133219667993    1.31339956942572
H         1.54078331606648   -2.22960498135541   -1.35658181956096
H         3.00266878688133   -2.84803913950769   -0.54130414844630
H         3.24890688361325   -1.82111148874119   -1.92436369371650
