37
 energy: -49.580519774972 gnorm: 0.149845280998 xtb: 6.4.1 (79825abcba525fcdf90b791dcacef51065a7a4e7)
C         1.97535955287582    0.65530573934684   -2.44371511924082
C         2.08594696944404    0.52958415065374   -0.91771414807647
C         2.68581309024743    1.83754871188040   -0.32770446463738
C         4.21827780267538    2.00130899782878   -0.40904512758149
C         5.01873252501039    0.90606497633864    0.31629296877419
C         4.44199297665082    0.71043444420387    1.71114905149284
O         3.40270979187610    1.69158187381316    2.03364476410345
C         2.35680986098871    1.85178409623395    1.14099822774808
O         1.32311190290840    2.20680191669845    1.70841082031659
C         3.82294418258999   -0.73486612322287    1.86535921376729
C         3.45838682248151   -1.08174624202324    3.44123256691868
C         4.74172894319166   -1.92102705272680    3.50924302380322
C         5.03559987590379   -1.81717764745503    2.04379341059999
C         2.58531000160432   -0.95937990687998    0.92375060745825
N         2.86637111344913   -0.61436340742331   -0.46249493624209
C         2.68884384881618   -1.86040860585364   -1.20371412458457
H         1.47580434176644    1.61041303552612   -2.63404260495622
H         1.38976684708898   -0.14789858179993   -2.91168676567184
H         2.99945971353958    0.59523859332759   -2.82019263902016
H         1.07446576147868    0.46787760843348   -0.50593403199510
H         2.16114129126749    2.72988750812793   -0.69563681635848
H         4.55573985241083    3.00974038267582   -0.12637939062664
H         4.56951145821983    1.95475517010527   -1.44134892576800
H         6.07442009895236    1.21666931558432    0.35416033089341
H         4.99205982071305   -0.04000565564542   -0.23128256912042
H         5.18943408912622    0.79048581323451    2.50875751245938
H         2.56836387679584   -1.69883164518110    3.59084402936414
H         3.45029301454559   -0.18236370422622    4.07267623232372
H         4.46701219236271   -2.93834531300078    3.79488567648982
H         5.53676915504090   -1.57260112333294    4.17678691109048
H         4.74999850340119   -2.75667102842674    1.52035566000383
H         5.95411277886655   -1.30742514160141    1.75389034382746
H         1.68787920979934   -0.50974642673115    1.37240112681995
H         2.39458149027796   -2.03682043285933    0.87864546221705
H         3.43256455394205   -2.58531733646749   -0.84583787935100
H         2.72520825814172   -1.72955580059537   -2.28977943836044
H         1.66415556467162   -2.23661231034877   -1.17866651467960
