37
 energy: -49.584602120493 gnorm: 0.130738196607 xtb: 6.4.1 (79825abcba525fcdf90b791dcacef51065a7a4e7)
C         2.06529178851639    0.53281816254440   -2.40878010254998
C         2.10823769439071    0.45882086225633   -0.87600662813459
C         2.88459219889057    1.65658725181945   -0.25847001723381
C         4.39889271633621    1.39747903413971   -0.40557108526812
C         5.02907017900653    1.65892657094112    0.97316897576421
C         4.19978368288758    0.93968419543211    2.02744484458200
O         2.95712612206610    1.69298932666508    2.21478644180634
C         2.30694260967660    2.09476554236206    1.06056527083100
O         1.26268069293796    2.74494284987669    1.11812117639313
C         3.85207288617396   -0.59860095724908    1.93432190996819
C         3.77631103154659   -1.34517468896895    3.40859885462762
C         4.90337787702032   -2.27211954332952    2.93270152651206
C         5.06766346358869   -1.63547116745848    1.58645619769245
C         2.60034320283421   -0.96843379390360    1.05958305977100
N         2.72425763184318   -0.76430500161347   -0.37662204115133
C         2.29782710693686   -1.96358939410246   -1.09315844013415
H         1.55541648185359    1.46963467249153   -2.65456844790087
H         1.45425334412648   -0.26962643326712   -2.84440397229600
H         3.03519442583539    0.49352558897746   -2.91064610975502
H         1.08041815879807    0.57833565697733   -0.52136875309734
H         2.79328928258883    2.55408551796251   -0.88543405042175
H         4.95593143824650    1.96567102185331   -1.16555802376906
H         4.53625981066713    0.37724038941163   -0.76809952035341
H         4.99219107753838    2.74503679545878    1.15034054654508
H         6.07889027101766    1.35319090869510    0.97129252604347
H         4.75827813697904    1.10301880745348    2.95624054172666
H         2.87214282613535   -1.88926084426592    3.69455153893211
H         4.17771151485363   -0.62697472162324    4.13711928974337
H         4.69688265139902   -3.34412478679557    2.94542712421831
H         5.81308277228119   -2.20182164198779    3.53817623225766
H         4.91197809195649   -2.28267149446244    0.69477417163326
H         6.00711245988529   -1.08556663179696    1.53548617731934
H         1.72415318726132   -0.42668577598513    1.44382222148666
H         2.54312789420849   -2.02273789021346    1.35020173350278
H         2.67070950983170   -2.84128207364026   -0.54790360130925
H         2.63473603608619   -2.07051564817284   -2.12903577009056
H         1.21761654588501   -2.09303043351709   -1.18553187191328
