37
 energy: -49.573417759185 gnorm: 0.150880812831 xtb: 6.4.1 (79825abcba525fcdf90b791dcacef51065a7a4e7)
C         2.30676770986244    0.51882656819975   -2.40568792683134
C         2.11728669812232    0.47539900292118   -0.88288607916870
C         2.90353393447318    1.69919192934077   -0.33255140634669
C         4.42262986162121    1.42776980168745   -0.35620363159102
C         4.98941311871748    1.70335035407846    1.04708346705505
C         4.22844046779592    0.95880377539568    2.13478485058619
O         2.94020534087884    1.64682744639612    2.25241556097769
C         2.37437374213628    2.00906401760333    1.04204021242327
O         1.25477234529158    2.52116924836531    1.06973692703942
C         3.83017404055136   -0.54677983220231    1.86927078815773
C         3.90882321955649   -1.40089833210952    3.28380272471529
C         5.10205758379096   -2.22516682832473    2.78105239514577
C         4.95779332169901   -1.63830292259721    1.41011623234867
C         2.46949842173100   -0.82533544250326    1.13460066509429
N         2.63518290352122   -0.76112353684520   -0.31043702278238
C         2.14545709299934   -2.00660735177008   -0.89566274544726
H         2.21170294335342    1.51173088843553   -2.85636919579759
H         1.67075312381052   -0.20499390756535   -2.93353528106707
H         3.32325159003040    0.15636726697466   -2.57746773793452
H         1.05373316469275    0.64064066698387   -0.68791461768178
H         2.55853838114342    2.55099271879648   -0.93449552580779
H         4.94315971419971    2.07626606805489   -1.07676985430547
H         4.54423823456042    0.38909214817575   -0.66852335273080
H         4.88820352239905    2.77438451321278    1.28166329700232
H         6.00742180102349    1.30599182514059    1.08402348273878
H         4.84640231453533    1.04192599168228    3.03615576651029
H         3.01499579111645   -2.00476076820537    3.46196421135569
H         3.73438950464526   -0.70064550300993    4.11259366137348
H         4.93398983354588   -3.29979358501577    2.87554060744476
H         6.00082990184980   -1.89484809696895    3.31227952373395
H         4.59347302868404   -2.38048164741293    0.66537165267452
H         5.80997075073113   -1.09109309301159    1.00773285594027
H         1.68089996201432   -0.22116074429846    1.60568980871231
H         2.24211674288645   -1.87382885703289    1.35425734250529
H         2.51981679027210   -2.80288547100772   -0.23802717939087
H         2.48847881928304   -2.05036928136947   -1.93412491763333
H         1.05599180382376   -1.94991651248323   -0.94031948518185
