37
 energy: -49.575117826697 gnorm: 0.139620877941 xtb: 6.4.1 (79825abcba525fcdf90b791dcacef51065a7a4e7)
C         2.27450763616696    0.47074612359642   -2.39548938520499
C         2.14086463294350    0.42156703752448   -0.86694908529044
C         2.64883901457508    1.75836774397144   -0.25568154973517
C         4.13953997353591    2.06563489835338   -0.51117991860061
C         5.02447221168232    1.21504671830603    0.41607263219062
C         4.42409260094669    0.91438231485250    1.78196741936185
O         3.32257911400438    1.82266644937425    2.11128685706714
C         2.30151854965037    1.98655858346579    1.19098040858917
O         1.26217259179115    2.49584110106845    1.61159600546262
C         3.92884064804800   -0.57653915959471    1.94862457161873
C         3.68322390838026   -1.17678211441900    3.47046080874555
C         4.54632845419034   -2.38439255542636    3.07967663375108
C         5.13204590148220   -1.68240711632087    1.89273143155131
C         2.69255821039530   -0.85882996175961    1.02089117523187
N         2.79878210512995   -0.80367255540913   -0.43010248495025
C         2.35386220489160   -2.04821516805145   -1.05196294203699
H         1.97861909186222    1.43802381575852   -2.81362063819638
H         1.58960696640655   -0.23120885347432   -2.89069010406950
H         3.23078868005045    0.13373070919475   -2.80300834059695
H         1.11814042091876    0.34861198281420   -0.48592735949023
H         2.04570205874012    2.56074804180327   -0.70215096486974
H         4.20114745649814    3.16027165679600   -0.41796341716703
H         4.47090171146090    1.72129573695853   -1.49241048675911
H         5.98147854478165    1.67330497739976    0.71022142644936
H         5.27157266980584    0.30785312244162   -0.14208612460571
H         5.18099457889112    1.11646691670038    2.54846394154265
H         2.65641339744567   -1.48063059016163    3.69103984352100
H         4.07287609812026   -0.52386375483907    4.26389911825823
H         3.88703699995911   -3.16925721291346    2.70375149296776
H         5.15147868190644   -2.73291890443626    3.92313795289495
H         5.14774919580764   -2.20856539074536    0.91236725508257
H         6.16011222215578   -1.34799247562115    2.02985855287023
H         1.96036476324343   -0.15243633287115    1.43771296869455
H         2.40426929796836   -1.84065786905886    1.41101090053274
H         2.81960728533124   -2.86091219586265   -0.47812182485842
H         2.77682769794522   -2.14928195662126   -2.05638735060230
H         1.28267577910288   -2.11034420899766   -1.25405775913831
