37
 energy: -49.562739384036 gnorm: 0.134853414874 xtb: 6.4.1 (79825abcba525fcdf90b791dcacef51065a7a4e7)
C         0.64922869691280    0.50701750184798   -0.74769944682353
C         2.03837820658448    0.27799255569831   -0.13571440834990
C         2.92219388305444    1.53696481235543   -0.36501947718753
C         4.42200159503615    1.39032411026205   -0.69811886335143
C         5.35464334699712    1.02933139101121    0.47075504652770
C         4.50052828484735    0.71621636434124    1.69098851845012
O         3.54300843867364    1.79077890849548    1.96527735096737
C         2.85401510770564    2.34749500299546    0.90144247461597
O         2.11349975256822    3.31898163301865    1.05757357175475
C         3.98276384391149   -0.77600238355686    1.72414039565419
C         2.71736370103996   -1.20914678287694    2.69766650468130
C         3.64365171644565   -2.22392795517308    3.38191381674322
C         4.88463317261801   -1.70975011795345    2.71838267906415
C         3.65903528277784   -1.51175303333198    0.37408767407117
N         2.64765395622283   -0.98574095712669   -0.53152125388581
C         3.13325506627464   -1.06859052835595   -1.90661323552350
H         0.10912870370923    1.30987096006107   -0.23610563286154
H         0.02483913212652   -0.39386466904278   -0.67284991858170
H         0.76334193415251    0.89290272307367   -1.76366956996347
H         1.82455179420996    0.15232419784812    0.92962616521044
H         2.45196887211653    2.08648316038205   -1.19196644607240
H         4.68760373835224    2.36992071339989   -1.12304289042513
H         4.44224435630775    0.65608307553059   -1.50537583481701
H         5.92096086547884    1.95267833585008    0.66849262062536
H         6.11475419179799    0.32813523233311    0.11557131492611
H         5.10510967595709    0.86247006836353    2.59340022502880
H         1.91817558900873   -1.75235692560089    2.18625676082272
H         2.27341498385668   -0.36960949538857    3.25062421921103
H         3.30640622243599   -3.22963483208998    3.12342471524196
H         3.58408767139814   -2.08545826764476    4.46652558112732
H         5.59998460006751   -2.44370420608096    2.28503898009374
H         5.54070525360637   -1.07692133634769    3.31558826985670
H         3.40108602549821   -2.53921578272697    0.66840395283772
H         4.55617683850174   -1.60320561865156   -0.24725230491007
H         3.04164452593897   -2.13419521913798   -2.15717803414304
H         4.19124721577143   -0.91574846450730   -2.14171875128949
H         2.36169264994710   -0.54302254067577   -2.47283971090717
