37
 energy: -49.579525437333 gnorm: 0.124427486220 xtb: 6.4.1 (79825abcba525fcdf90b791dcacef51065a7a4e7)
C         0.93861695756239    0.44523032454895   -1.29240993570491
C         2.14117827603086    0.30282003218786   -0.34886339809832
C         2.82041048014619    1.69553207232475   -0.21575093661317
C         4.27799022882787    1.72654392386875   -0.72209215394231
C         5.10232482482689    0.84855860701441    0.23499554237723
C         4.47082402899533    0.56568892926104    1.59061893612397
O         3.55798558537186    1.58447562828488    2.11555982524086
C         2.70471007916667    2.18211375624385    1.20389165819614
O         1.81611411538103    2.96909939474930    1.53188099759668
C         3.89412970251569   -0.89872344309429    1.72779020847882
C         2.69693515398247   -1.12994316882156    2.84576487184535
C         3.74919303429319   -1.60940086858075    3.85515001574104
C         4.74741394444151   -1.83574500391584    2.76107015442646
C         3.57025115202082   -1.60937735534412    0.36439544303476
N         3.19446392360099   -0.65326817286517   -0.66727680507736
C         3.31726690490451   -1.09110988414886   -2.05535623636253
H         0.16256803307412    0.84194722788653   -0.63031199776293
H         0.72136788495709   -0.57703275363675   -1.63128234858256
H         1.14176712989860    1.15555724893632   -2.09757463630239
H         1.83390289079216   -0.00486597133851    0.65481781604955
H         2.24311327628336    2.43029511467143   -0.79348312638918
H         4.61958284259819    2.77235311574305   -0.70442709014247
H         4.37573619464762    1.40286530565246   -1.75981145958387
H         6.14308858931268    1.18258475174545    0.36774557481853
H         5.31366880824298   -0.11812557088557   -0.23025221599919
H         5.30126391038163    0.59810909431423    2.30516371781606
H         2.06337941982090   -1.95397031033892    2.50678812659275
H         2.12073088088781   -0.22286661481999    3.07571338568437
H         3.49150482140928   -2.51058779123026    4.41502176615354
H         4.01811676601843   -0.79001762424680    4.52998002093287
H         4.75619337108643   -2.87891272706746    2.37386599069806
H         5.77042688854054   -1.50227408826182    2.93369408495659
H         2.81926836544207   -2.39429385559811    0.53401423085296
H         4.48144605968256   -2.10116242042644    0.00779873091398
H         3.55476430609782   -0.24011878948284   -2.70811783204605
H         2.40002600936136   -1.50919387112679   -2.48180390007874
H         4.09427742974189   -1.85472955025832   -2.12803594769282
