37
 energy: -49.583350293823 gnorm: 0.139345076096 xtb: 6.4.1 (79825abcba525fcdf90b791dcacef51065a7a4e7)
C         2.24132862422232    0.55853201068011   -2.36078656989508
C         2.07334483026566    0.39727279414754   -0.84339032190124
C         2.53571697811243    1.74066717304483   -0.21075647147797
C         4.00867496961929    2.10561018923531   -0.49199160012004
C         4.92858537410525    1.03495076770042    0.11944593320084
C         4.51681595986129    0.88574375490727    1.57708324188371
O         3.49214132735600    1.80676231430809    2.07561109374631
C         2.36611036137325    1.90242070378322    1.27605311008785
O         1.28531052767220    2.17323182715690    1.80051398711686
C         3.96527053106504   -0.56528877115938    1.87067844931033
C         3.55390501751749   -0.88453772188029    3.44085780871397
C         4.42672286690552   -2.14697286491008    3.42009219262694
C         5.08507275510630   -1.72556087415408    2.14193932527534
C         2.77594570287164   -1.04998943088290    0.96550261759217
N         2.81564000283880   -0.79986994057175   -0.46822434602546
C         2.62700972375020   -1.97409163831502   -1.31626470033026
H         1.54055052974805   -0.12633128470943   -2.84851829647660
H         3.25973805069802    0.29824288329259   -2.68038831139020
H         1.99098717855812    1.56553148133171   -2.70343179042699
H         1.01628336318288    0.30089805790770   -0.57919768546228
H         1.86235731307991    2.48209056593009   -0.66220010917315
H         4.17895932442138    3.05537834969697    0.03683550716844
H         4.26581220118022    2.19035411897172   -1.54929117234303
H         5.99223686503269    1.29201112330811   -0.00282723916938
H         4.79182351516422    0.05342689932651   -0.34262239608567
H         5.28898228481712    1.15893774641775    2.30535510286251
H         2.50939346222485   -1.18928881810696    3.54782138958790
H         3.87328337216531   -0.11985228103893    4.16261206144901
H         3.95252807451502   -3.13024347721432    3.40232530830512
H         5.14183520338338   -2.20377928992478    4.24743237982158
H         5.12391085082346   -2.46685470265979    1.31297726588335
H         6.05084875865363   -1.22407030316013    2.19974312445420
H         1.95598996179390   -0.41889978334974    1.33730638163716
H         2.56315526816484   -2.06138519583448    1.32756441347125
H         1.73933723190753   -2.49229164720882   -0.92871489011683
H         3.47162963920281   -2.65579833875152   -1.17528292265533
H         2.54798881458522   -1.83647337052604   -2.39652373663894
