37
 energy: -49.567913553559 gnorm: 0.145408058853 xtb: 6.4.1 (79825abcba525fcdf90b791dcacef51065a7a4e7)
C         1.07303477635606    0.50886291734947   -1.58399045877260
C         2.07361743760452    0.39301542176936   -0.42548791809060
C         2.80261187166720    1.73294753794678   -0.12238545919948
C         4.24015819070161    1.77287087327935   -0.68251807796529
C         5.18051834151050    0.90657750983671    0.17285388388664
C         4.68839389742974    0.66310340395699    1.59238098600389
O         3.82949909604397    1.69258649997919    2.18333578861225
C         2.81738568352037    2.10813292345391    1.33519850263230
O         2.02216134673671    2.90119563067734    1.84036774393504
C         3.97458145912220   -0.73759080466456    1.74866100068273
C         2.76065057251085   -0.79371936142381    2.87108074803111
C         3.43654160289602   -2.03334623394296    3.47314489179511
C         4.73785990191785   -1.73973401040483    2.79119918739981
C         3.56242011881341   -1.50951122274429    0.44365775590142
N         3.01171565517762   -0.70270001283554   -0.63592025044987
C         3.01400532986148   -1.55978014535288   -1.81869614813653
H         0.58101199362283    1.46063045628879   -1.36024497290646
H         0.43421956814706   -0.38286570815876   -1.64554244688231
H         1.44252532820019    0.75518096665443   -2.58245360862886
H         1.50383727675935    0.23168780639109    0.49417982597078
H         2.20467415065904    2.46764613629835   -0.67881308260664
H         4.61214106912423    2.80780348321090   -0.64705466004818
H         4.38309677429809    1.30579939801256   -1.65852846409182
H         6.15955780419068    1.40987938707688    0.14931224200880
H         5.32521109369391   -0.05826218081605   -0.32085496421558
H         5.59664647325948    0.66095277241632    2.20583704024620
H         1.80034372931019   -1.00276979817944    2.39209482625336
H         2.61250824930874    0.08066591350535    3.52006441543531
H         2.93692879384112   -2.86496910230612    2.97235760288572
H         3.49642322514617   -2.12053971631353    4.56306043794031
H         5.24912308867003   -2.56820980994635    2.25227354924157
H         5.50841526545945   -1.26242306048040    3.39615873136801
H         2.86200581448910   -2.30120545758192    0.74611374677129
H         4.46430747891413   -1.98482278873332    0.04369772843838
H         4.02399120462330   -1.53960702752349   -2.25021687417670
H         2.46164283571693   -1.14790223349718   -2.66912835814125
H         2.70591912422846   -2.56808146276419   -1.53487573408928
