37
 energy: -49.581308989898 gnorm: 0.147121643792 xtb: 6.4.1 (79825abcba525fcdf90b791dcacef51065a7a4e7)
C         2.63520326956079    0.53438832405584   -2.40149952833515
C         2.19307205196079    0.45724990586411   -0.93341093272563
C         2.54241765954890    1.74632469026110   -0.13656343532679
C         4.01688063908687    2.12986283373393   -0.38301685502774
C         4.94323903884947    1.06439120437942    0.22774738041084
C         4.43962519418009    0.82205222526739    1.64343387949020
O         3.40236149693863    1.73321818254883    2.13396824504674
C         2.26995748659672    1.81658712960095    1.34207175338551
O         1.20307723207566    2.16897200970298    1.84617253256498
C         3.84327703171772   -0.61842723584324    1.89894075997382
C         3.64573039885840   -1.01083480547848    3.49380638338214
C         4.62439255882866   -2.16852003668480    3.25303680666950
C         5.09032394542354   -1.67593287789170    1.91701538620679
C         2.60919383293223   -0.98297919937603    0.99732435443540
N         2.75157904358021   -0.79532362975681   -0.43941510844776
C         2.34271794773192   -1.92644724720557   -1.26823500627122
H         2.58627189710624    1.52645361773525   -2.86130609627150
H         1.95204665076664   -0.08927131938196   -2.99428882630282
H         3.65097370420954    0.20175164353571   -2.62884899944147
H         1.10189770359781    0.47867144796789   -1.00651673722060
H         1.92402783521997    2.54927609954881   -0.56057560955758
H         4.24546806523741    3.12675428350515    0.02277823596505
H         4.16319254499578    2.09306139896916   -1.46395254907670
H         5.96115519318147    1.47690594176327    0.30561627420082
H         4.96134528993187    0.08801103453422   -0.26414080272255
H         5.13304982549092    0.93177818242267    2.48508595735597
H         2.62370270830982   -1.24112303881298    3.80644925142855
H         4.05503758488200   -0.18317241721971    4.08972430459701
H         4.06379965521073   -3.10293718408563    3.18523079223488
H         5.34817971150006   -2.23268939660002    4.07225525340853
H         4.98610049349668   -2.35392302794388    1.04084766529038
H         6.00175042007068   -1.08403627807081    1.99774683055075
H         1.70607734330362   -0.50960871194790    1.40859140617145
H         2.37271455120779   -2.04634987861084    1.10961985531249
H         2.53255352906991   -2.87661025722974   -0.75070117080630
H         3.07307627649900   -1.92514206375596   -2.08343909465356
H         1.31273016595157   -1.78754493043999   -1.60286018321068
