37
 energy: -49.582325704983 gnorm: 0.147697403667 xtb: 6.4.1 (79825abcba525fcdf90b791dcacef51065a7a4e7)
C         2.42186475544057    0.61071904269573   -2.40660436771283
C         2.21103375600516    0.40904008302293   -0.89942476716609
C         2.66891063104183    1.74885895471251   -0.25603047709982
C         4.16720978823338    2.09074283725653   -0.39779396591335
C         4.94269129871854    0.95550846748945    0.29233208257774
C         4.40405193652866    0.78405314692352    1.70548247301422
O         3.29242326964830    1.64298840648240    2.12174590276956
C         2.31162621737204    1.94554565528257    1.19282960272971
O         1.24354838854261    2.43340601492996    1.56394707188463
C         3.82099464228400   -0.66600613750267    1.93628152297488
C         3.67964519117649   -1.08078707294771    3.53145606539931
C         4.85380554372686   -2.05985199417860    3.39447414502372
C         5.03103737922636   -1.76580948796195    1.93611366934001
C         2.62178103746381   -1.07140103294875    1.00552199529913
N         2.81653049171899   -0.82579865058305   -0.41625877284736
C         2.27932772234719   -1.90443740184685   -1.24179016704003
H         2.11001646043007    1.62597074175056   -2.67122586331257
H         1.85411827657903    0.03260891171063   -3.14856532979347
H         3.48727617410444    0.48098254424062   -2.61200999707592
H         1.12269423266657    0.40518301031495   -0.79003099953726
H         2.03197682449115    2.52112855508479   -0.70862107009530
H         4.38937455914986    3.05576551032161    0.08188142187352
H         4.42265531465786    2.18207943474640   -1.45495463579389
H         6.00338691961196    1.24568494875922    0.23658563545739
H         4.69053109087263    0.04543374700540   -0.25882967848921
H         5.05664276447799    1.05146784913367    2.54445225316483
H         2.63959868345727   -1.40087380894603    3.63712810320819
H         3.75006727309164   -0.19573721781353    4.17906941351467
H         4.66824221203440   -3.09491874191887    3.68807342720648
H         5.68702490735415   -1.72958597135218    4.02358006306088
H         4.77491415751419   -2.69372142291550    1.37791712960503
H         5.96216308907222   -1.27928644912454    1.64653188804482
H         1.71347856935479   -0.55727764019756    1.35121456760464
H         2.35233200842127   -2.12237672155691    1.15430788753753
H         2.73949671165381   -2.84294051218423   -0.90393667973203
H         2.49439718005399   -1.85620615609884   -2.31389163891037
H         1.20075127246744   -1.84806918211880   -1.08167096180953
