37
 energy: -49.578579001534 gnorm: 0.137115316814 xtb: 6.4.1 (79825abcba525fcdf90b791dcacef51065a7a4e7)
C         2.03662314127837    0.49935036652577   -2.36254257592603
C         2.02831586868417    0.42771127809069   -0.82907810092237
C         2.61737928150251    1.71065591711589   -0.17656034116679
C         4.11144454828965    1.97190421792579   -0.46186747419630
C         5.05749805911764    1.09605850031348    0.37734623037851
C         4.39444881675455    0.77252588779248    1.70859214202506
O         3.35805473845997    1.72016162598100    2.12648823232972
C         2.34096846311443    2.07568197124753    1.25727591535493
O         1.35105034229761    2.70827863325413    1.62661281833357
C         3.78679506220163   -0.67849123495393    1.85420183755604
C         3.52800118140057   -1.12983982794388    3.42452502637294
C         4.70124462099362   -2.11226005776673    3.30479603907549
C         4.89939183958486   -1.87667894020007    1.83853323328402
C         2.49815659612587   -1.00467449141508    1.01647454391668
N         2.71716861800015   -0.78532061423570   -0.40606757059462
C         2.96053503097831   -1.96559921485286   -1.23145575263866
H         1.55891735497614    1.41743499726256   -2.71881171417533
H         1.63634372940107   -0.41276320047755   -2.82609267984532
H         3.06025589890175    0.53055671336648   -2.74375992001282
H         1.00733980545406    0.46482774768661   -0.43831596666265
H         1.98202818455094    2.50389337102971   -0.59372529632586
H         4.28275728082197    3.03254142011744   -0.22434883203361
H         4.30052166312981    1.94434676553169   -1.53642501685771
H         5.94842947699759    1.71932890399158    0.55101394975887
H         5.35543666111999    0.21382963261773   -0.19580720540954
H         5.09615479461143    0.88433310876073    2.54307616505857
H         2.49945545090453   -1.49478155241973    3.48956392860981
H         3.84846827913884   -0.29675422934712    4.06557478871346
H         4.52019494735327   -3.16315867525091    3.53895533291875
H         5.59717698639553   -1.75892963787364    3.82591716080393
H         4.58846475604601   -2.71886152868831    1.18107153849111
H         5.91281613230255   -1.63888599543689    1.51606915765728
H         1.76600252183212   -0.32198715629956    1.47114808027900
H         2.06691288804327   -1.98199435958884    1.25764806427686
H         3.58016797548557   -2.62354701647368   -0.60707744804069
H         3.55015298531135   -1.78350132721316   -2.13543236500933
H         2.00931452982312   -2.41043324562184   -1.53052920798104
