37
 energy: -49.579752135576 gnorm: 0.126499378774 xtb: 6.4.1 (79825abcba525fcdf90b791dcacef51065a7a4e7)
C         2.11546639876591    0.64027887112204   -2.43551354135607
C         2.01980730124649    0.54122792027464   -0.90654241163269
C         2.65597745015580    1.80143546279493   -0.25394254731602
C         4.18439660685735    1.93393543530164   -0.42205113529846
C         4.99655064738128    0.84291147929662    0.29661092718636
C         4.45337336082023    0.74881935742855    1.71528229367292
O         3.40022983922738    1.69390659174315    2.09536407672774
C         2.35478042151802    1.91837743351425    1.21613850364323
O         1.23240151882583    2.19675184233106    1.63957616898423
C         3.82043402185444   -0.68669027677762    1.90128181391440
C         3.49838036340283   -1.17354751627834    3.44913716207526
C         4.86154693332120   -1.87894364571544    3.46247519743301
C         4.97343244170886   -1.84418846466961    1.96883497837665
C         2.56793103959458   -0.89536776821140    0.97582972615441
N         2.70062964794022   -0.66634888024244   -0.45583009753607
C         2.68301230770585   -1.85679711643911   -1.30204109846590
H         1.79234033772463    1.64941104027355   -2.70983401942800
H         1.34966977159730   -0.00677133993925   -2.88488534441349
H         3.13777198335025    0.41830670952330   -2.75133655136101
H         0.94092439588917    0.58093290432721   -0.73075850574214
H         2.24542625782524    2.72312420803510   -0.68852376238637
H         4.47221417474358    2.85429456269343    0.10786825468294
H         4.51291346047181    1.96161594809410   -1.46248082735676
H         6.06315603363527    1.10578442621836    0.37168441981502
H         4.73668937676557   -0.11435378059228   -0.16351449346108
H         5.28371695712499    0.99658599364263    2.38639845926080
H         2.59383488170602   -1.76416258825734    3.61733388107665
H         3.40986092222329   -0.41503317480466    4.23938766704463
H         4.81372841015092   -2.82277084321675    4.00919365349877
H         5.60256127419487   -1.33359428207721    4.05627333423880
H         4.76823529236739   -2.79013007289401    1.41993458942876
H         5.97139738974591   -1.60972290331388    1.59917403153232
H         1.84471279415619   -0.13894497197677    1.31290467422071
H         2.14982956918246   -1.89009105961441    1.16293036745405
H         3.33060926284018   -2.59731802587229   -0.81323078098170
H         3.17199812817735   -1.68842584703396   -2.26667920234012
H         1.66605692076641   -2.19493461311515   -1.51086508881968
