37
 energy: -49.572937899832 gnorm: 0.162231778805 xtb: 6.4.1 (79825abcba525fcdf90b791dcacef51065a7a4e7)
C         2.00187892134549    0.62326777148977   -2.42184361527399
C         2.03810274082003    0.51284659176963   -0.89108908682375
C         2.63968162396924    1.79999425404793   -0.25857363725205
C         4.16686437359354    1.99780380328623   -0.36087753536511
C         4.85672838372320    0.84107442130830    0.38240397601404
C         4.30427108834951    0.63720377330632    1.78588217089509
O         3.17416526948826    1.48343254014911    2.17769978657971
C         2.29095569433532    1.91140551519876    1.20139592485470
O         1.28959396813211    2.54735383085980    1.53210820140781
C         3.75215372710905   -0.84152582612040    1.85237408025374
C         3.63472922823028   -1.14815445968525    3.47373002670877
C         5.01618072531415   -1.81574309720686    3.43011951094580
C         5.11375796221659   -1.74300784217380    1.93684269003932
C         2.47231670834879   -1.03041344545866    0.96068451887255
N         2.67127112261247   -0.72332565489008   -0.44850767312268
C         2.95498554526955   -1.84004461862187   -1.34628007285427
H         1.53555611917504    1.54364917896374   -2.78715307998651
H         1.31534676716625   -0.16152400659406   -2.76800676697461
H         2.91012563593379    0.59712790527145   -3.02890960502632
H         0.98080919785223    0.50748165853390   -0.61079216530860
H         2.20531700950531    2.68061519906290   -0.75127778600549
H         4.31998511078523    2.95788191992308    0.15440732209910
H         4.44919792805046    1.85437095143721   -1.40533828941496
H         5.91153210999964    1.15033971933846    0.44666395282934
H         4.87547818495188   -0.13483925504302   -0.11038502364298
H         5.03469082771569    0.85594301804275    2.57321682826462
H         2.81062299865909   -1.84839260403982    3.63446055400311
H         3.50132446035135   -0.22593519927426    4.05630223065109
H         4.97977721818074   -2.73308296572535    4.02101697495281
H         5.74922308312082   -1.17842390659351    3.93566630661136
H         4.91620391530179   -2.67495665422701    1.36182368617041
H         5.94691455892090   -1.17987440523572    1.51697582787673
H         1.70911370806923   -0.34473724015709    1.35591725450053
H         2.21903510283540   -2.07369260411719    1.17680240475189
H         3.76406350924636   -2.47602827900508   -0.96208457562582
H         3.26147020624785   -1.51675834960903   -2.34604795625945
H         2.06742067871566   -2.47560429005249   -1.32541880703477
