37
 energy: -49.579437017779 gnorm: 0.140465428504 xtb: 6.4.1 (79825abcba525fcdf90b791dcacef51065a7a4e7)
C         2.50625258759444    0.48088497932207   -2.39744984593926
C         2.18991941878365    0.44258154137832   -0.89572394967333
C         2.95235274201286    1.66107737916391   -0.30185068351388
C         4.48418891452511    1.47675425661238   -0.33906341055325
C         5.00859627094878    1.77766009495576    1.07545248122257
C         4.15698039194926    1.05998774646733    2.11286276900275
O         2.89999370600674    1.80605148041300    2.21354391661311
C         2.26606513921806    1.99009034050184    0.99672283769215
O         1.09298224626952    2.36296410062480    1.03370761243711
C         3.88886334923817   -0.48661693990600    1.93391278753131
C         3.98696329446079   -1.36179343862567    3.33428674586401
C         4.78593234492982   -2.42470393189011    2.56757008064127
C         5.11469303947726   -1.46284813165952    1.46691699299718
C         2.60086186020609   -0.96031286986932    1.16877494279241
N         2.58635787688912   -0.81786794589774   -0.28008927497749
C         1.91716756069413   -1.98958423335252   -0.83938859053181
H         2.36599993410139    1.49363788115052   -2.78818078392127
H         1.87908101799640   -0.28640158878820   -2.87177106330667
H         3.52319512373623    0.21300166376080   -2.69441943061948
H         1.10532466948505    0.47627046216752   -0.75794115989050
H         2.55376061072694    2.52238391835475   -0.85520285937500
H         4.96136995939458    2.14667803743139   -1.06996340570917
H         4.67894545698775    0.44951899150852   -0.65217853156626
H         4.85082001358571    2.85511087514452    1.23852220709752
H         6.09674626527424    1.69813685742116    1.14760290991807
H         4.61584950269526    1.17320809007938    3.10173889469182
H         2.98069802096255   -1.56963306760852    3.70785297172355
H         4.59790165564734   -0.69263587466887    3.95610508510776
H         4.15073672365800   -3.26452357779026    2.27907927157766
H         5.62423435084880   -2.80956742390305    3.15768384032739
H         4.95018842624526   -1.83907807485223    0.43270603818970
H         6.14830204861881   -1.13618275226997    1.57871815351270
H         1.71611400755474   -0.45793869411074    1.58552549082268
H         2.65847679922888   -2.03736890265571    1.35830266071130
H         2.21988864050611   -2.82826207480534   -0.19777500373631
H         2.28554167529620   -2.21259572460257   -1.84564356933238
H         0.83009066837436   -1.88824999484894   -0.82764572743354
