37
 energy: -49.570875042771 gnorm: 0.132649331246 xtb: 6.4.1 (79825abcba525fcdf90b791dcacef51065a7a4e7)
C         0.82901454897088    0.58209486149991   -0.95232694483872
C         2.18153608936131    0.25529805723570   -0.30378721032303
C         2.98876485873958    1.58119354880176   -0.39920696189830
C         4.52218250241574    1.62890016941587   -0.56724342219487
C         5.33463346065471    1.00863958613960    0.58236644020581
C         4.46331920072937    0.65703356180354    1.77974188585296
O         3.51115133089511    1.75279661430303    1.97834438963136
C         2.70979464674562    2.20259418654169    0.94301890228013
O         1.86549323381565    3.08398471810168    1.10682376965641
C         3.94172530624377   -0.83162538189087    1.69182021444240
C         2.67456977235700   -1.19915026014912    2.68974154893348
C         3.65745063508241   -1.90818389302646    3.63165514175337
C         4.81629129668188   -1.78712082567109    2.68978495483743
C         3.80434610484147   -1.50427604216215    0.27851218434078
N         2.70924299789948   -1.07524483160853   -0.57961939813486
C         2.95309430805260   -1.26802958983415   -2.00682681451691
H         0.20015817115731    1.22423513450563   -0.32766269002159
H         0.23397643695100   -0.31391363566521   -1.17627309651435
H         0.83437476962836    1.17021756287616   -1.87330874228623
H         1.97129597800945    0.20705638088416    0.76856377893636
H         2.65431365993015    2.24966057764912   -1.20432650295718
H         4.79619995735979    2.69455865139002   -0.56817247311306
H         4.75165042793369    1.13565443571365   -1.51341285455609
H         6.11989792513669    1.69001627247233    0.94495544385804
H         5.91334958458116    0.12632460672800    0.29564712378264
H         4.94459077252136    0.68488378999403    2.76404759829487
H         1.91639173296809   -1.82923178891440    2.21700256184963
H         2.12765244257996   -0.33309799585285    3.08787527329767
H         3.45479120474265   -2.91564570595929    4.00036547661380
H         3.73626688633392   -1.32090928925093    4.55252481134553
H         5.10520964115358   -2.75605858470948    2.22514655282560
H         5.77136125796202   -1.35787228541580    2.99168628748712
H         3.58539373005017   -2.57606412464966    0.38882878529064
H         4.71596895501611   -1.26175378666829   -0.27774014323980
H         2.17165662181315   -0.72362307934392   -2.55424370812557
H         2.87004413204061   -2.33750897951535   -2.22431059475302
H         3.90292734636995   -0.86159684489918   -2.36005805323785
