37
 energy: -49.587474689075 gnorm: 0.135673384487 xtb: 6.4.1 (79825abcba525fcdf90b791dcacef51065a7a4e7)
C         2.34338225020901    0.47550766360244   -2.40736963886948
C         2.11746428296727    0.47502656894979   -0.88892460300687
C         2.61436459879121    1.79175089186694   -0.22707171169896
C         4.11262143133777    2.06788487118289   -0.47376660142356
C         4.96222752212281    1.11437454367883    0.38378232781203
C         4.35939364866783    0.85069599067814    1.75622113659052
O         3.37047649394546    1.87225055095019    2.11010313137671
C         2.30722215847492    1.99570540770377    1.23224301333126
O         1.21384352107536    2.37095310148665    1.65678806851175
C         3.84576463644989   -0.63276551755004    1.93348687925941
C         3.63004634655695   -1.15341566707050    3.48879835175187
C         4.56218737300497   -2.32902045078573    3.16468231175762
C         4.92595022260430   -1.85214232019996    1.79174704827649
C         2.55506312539698   -0.94931602745068    1.09524048608983
N         2.77486351317744   -0.69575886444728   -0.32148285329222
C         2.78677801197078   -1.88802886467350   -1.16522496524290
H         1.91858412905772    1.39835543692081   -2.81468825735868
H         1.80357614443965   -0.33989505885212   -2.90815026625914
H         3.42555200746813    0.40324493363840   -2.54082841074088
H         1.03305774411127    0.49637077228746   -0.74725000066295
H         2.00514101666705    2.50760531573501   -0.79568611962690
H         4.24068297157039    3.11474660177960   -0.16008651626936
H         4.32104861917998    2.07960741317005   -1.54502948792445
H         5.88267827051696    1.69818735644064    0.53972556465021
H         5.23509244173322    0.16124429705624   -0.07739824727644
H         5.13193221383813    0.93544134393352    2.52904589490648
H         2.58970081855034   -1.46866031690690    3.60550667194846
H         3.98603792730023   -0.40027923606363    4.20554871289691
H         4.01619847195606   -3.27427458882606    3.14497955584386
H         5.41557304107464   -2.33993651506675    3.85077133928115
H         4.63925718516001   -2.49254045260935    0.92809180530809
H         5.93635213253532   -1.45110228079724    1.71550905475615
H         1.71580656843592   -0.35398507922653    1.48262801533385
H         2.28347120604539   -2.00924651194560    1.14079413026612
H         3.36707688418468   -2.62046423724005   -0.58774750990576
H         3.25516665059768   -1.74858672554541   -2.14458734321968
H         1.77699554318081   -2.30325611012684   -1.17349512165224
