37
 energy: -49.577126226537 gnorm: 0.163568818304 xtb: 6.4.1 (79825abcba525fcdf90b791dcacef51065a7a4e7)
C         1.96804419172346    0.42647216829965   -2.32480240101766
C         2.14874610449107    0.38781504030131   -0.80080537521775
C         2.85993068212247    1.68624303690605   -0.32433569954439
C         4.38913272687827    1.49592781501386   -0.40920658406642
C         5.05190081046383    1.66736354902592    0.96838219438002
C         4.22653306193142    1.05247073642566    2.08963069320386
O         2.95756283551912    1.76048649583218    2.27722482662840
C         2.36431305561960    2.02757709893374    1.05529743428055
O         1.32086918171903    2.67597819811477    1.14089576964239
C         3.87192818560776   -0.47516714788845    1.89864961916448
C         3.85876714360490   -1.28005576387657    3.34384366063354
C         4.60722823093082   -2.45939793753825    2.70749254673280
C         5.11227954545574   -1.51379749969994    1.66085489613336
C         2.61587181974239   -0.87265661876420    1.04243929726217
N         2.83369709458331   -0.83379829213865   -0.39657100199960
C         2.43275303850374   -2.08353848992581   -1.03761995673788
H         1.44290425160107    1.34687638440486   -2.59883530957648
H         1.38948976118313   -0.45261168191147   -2.64030172879469
H         2.91942545176993    0.35466679257682   -2.85757084269085
H         1.11615825795784    0.40347506787795   -0.44027533014908
H         2.50549858534484    2.48646829189595   -0.98836934306672
H         4.79978851141693    2.19017749284849   -1.15760061925838
H         4.59040694993863    0.48713671352538   -0.77391561152233
H         5.17573298158261    2.75232261906832    1.10950151042210
H         6.07463707223406    1.28681734637178    1.03762931069476
H         4.59109864544498    1.26832158086170    3.10045018447571
H         2.84983036631219   -1.46449342282493    3.72245713038554
H         4.49214793892831   -0.77043875560664    4.08329943135473
H         3.97950957974976   -3.21921302612631    2.23776093551804
H         5.31003460836194   -2.80722424633407    3.47181215476914
H         5.16686777158388   -1.97614337281658    0.65018212506220
H         6.13942726927361   -1.19820610839667    1.84231281666069
H         1.81512682791988   -0.17380390958136    1.32395652528518
H         2.43043403261251   -1.90766197738034    1.34848940322410
H         3.00886196746965   -2.91539932847311   -0.61007509040574
H         2.67593773504498   -1.94632888143371   -2.09592871373722
H         1.36723158106246   -2.32105361020522   -1.01778862055717
