37
 energy: -49.577250011274 gnorm: 0.145298842029 xtb: 6.4.1 (79825abcba525fcdf90b791dcacef51065a7a4e7)
C         2.05771141263858    0.53920067027913   -2.35043937012992
C         2.14382034628561    0.43132367581652   -0.82149781452901
C         2.72069514704161    1.78516025020088   -0.31844305346621
C         4.23306538567189    1.95431312060105   -0.57535820730681
C         5.10415467555112    1.13490921252858    0.39220743003662
C         4.42473435360149    0.93523636748254    1.73944239846297
O         3.29341786079075    1.80295265290617    2.07701420090155
C         2.30089433235735    1.92714808864927    1.12000752831915
O         1.20490611468361    2.37236663055304    1.46223030819965
C         3.99653403681795   -0.57239046069153    1.93844421988859
C         3.70768031017014   -1.10600706585712    3.47741190670102
C         4.40016370259254   -2.42362149047271    3.10278718841903
C         5.06693882734625   -1.80820114211205    1.91058077887627
C         2.69429720821984   -0.85219259130241    1.10498060062622
N         2.88353919405316   -0.72588892112317   -0.33305392745082
C         2.54413715545670   -1.97305076472091   -1.01345384535295
H         1.70791859753426    1.54942715181738   -2.58516762424376
H         1.29075637032440   -0.15287893530984   -2.72441697528594
H         2.99953070107955    0.40930307662004   -2.88916709733174
H         1.13991264120283    0.63657268690943   -0.43873551672130
H         2.17992879160382    2.57286470772081   -0.86067610793013
H         4.52074664023819    3.01094498545109   -0.46819937682101
H         4.27486933024833    1.62362257954785   -1.61462702433200
H         6.01088850053510    1.75127848180587    0.49373547622681
H         5.29318266825276    0.09704738909423    0.10461171274472
H         5.11363074167284    1.19992208291153    2.54976266062824
H         2.67151924996391   -1.15033582892490    3.82342352584076
H         4.30912561077252   -0.57648716526792    4.22944101932691
H         3.68388396031599   -3.13563370705449    2.68808320175509
H         5.08003101426924   -2.84927753404893    3.84824126493035
H         5.08505256414630   -2.26361345313843    0.89545785348038
H         6.06737395294648   -1.43357168562225    2.12584732795293
H         1.88750158444251   -0.19980728776498    1.46873028768562
H         2.33618955705674   -1.87066283591093    1.28873913204887
H         3.30430579361733   -2.59670947297932   -0.52367631714898
H         2.61222766725970   -1.89560678370317   -2.10310920621923
H         1.55601554616369   -2.37351632049698   -0.77811214718113
