37
 energy: -49.577018139916 gnorm: 0.122865188514 xtb: 6.4.1 (79825abcba525fcdf90b791dcacef51065a7a4e7)
C         1.94491939920820    0.55737013340653   -2.34261708302006
C         2.09364609111667    0.51304313312240   -0.81532209724910
C         2.73175420869892    1.86839757834058   -0.39752494616575
C         4.27271386858159    1.95374455022123   -0.39111659067138
C         4.91100825393242    0.95214718944008    0.58652628378143
C         4.15093036749704    0.74989446545096    1.88956071803585
O         2.95302630888963    1.58506060724248    2.00908752451659
C         2.25417650720773    2.20749823685291    0.98900440569793
O         1.31068504407225    2.97541960831446    1.18043788873676
C         3.78216722089318   -0.78056985849502    2.02218281930821
C         3.69996501992052   -1.47622352930511    3.52082002196468
C         4.93048815244539   -2.34443385197206    3.22415800443580
C         5.09844895734318   -1.73782081963884    1.86456350931938
C         2.57486338366998   -0.96922933539201    1.03445985123933
N         2.88970610180525   -0.61242879445658   -0.34150377330883
C         2.80382347694819   -1.83138565827543   -1.14170299810061
H         1.33494909113348    1.44754812122237   -2.52572712730900
H         1.39300362286596   -0.31104410651835   -2.72771337309431
H         2.88848601239058    0.66539318361769   -2.88311462302023
H         1.05856479848213    0.56711705497972   -0.46582598997355
H         2.40825371217536    2.67948705731112   -1.06416167693774
H         4.55834475057787    3.00603980702654   -0.24345443556103
H         4.77071685770311    1.69879871348954   -1.32822870761743
H         5.94613119040861    1.27410848526935    0.77952026654262
H         4.89898848513462   -0.03363334916156    0.11356507545974
H         4.60560712288528    1.05959217324729    2.83751223230512
H         2.77829979400951   -2.04974817285111    3.65090277093474
H         3.82203537655778   -0.77198548045184    4.35557936270692
H         4.76206091909307   -3.41995766467517    3.14122275477199
H         5.76852965661535   -2.13683561899869    3.89772598120359
H         5.01812084786807   -2.46317715739296    1.02455838045004
H         5.98832339700351   -1.11374166019553    1.78578504098649
H         1.77156503542391   -0.29574108424868    1.36606947993774
H         2.26148568564710   -1.99112861763565    1.27280037675873
H         3.27782124285896   -2.57026645456056   -0.48134714297668
H         3.36476159513445   -1.78366881060908   -2.08034788565527
H         1.80352097458319   -2.11314397521559   -1.47659080835285
