37
 energy: -49.585007620527 gnorm: 0.138585272216 xtb: 6.4.1 (79825abcba525fcdf90b791dcacef51065a7a4e7)
C         1.90935298490549    0.46532303463360   -2.31469724977191
C         2.05609107886401    0.34306293813892   -0.79146552844850
C         2.63487128526908    1.66862192848999   -0.21995094610517
C         4.10390596961929    1.97352880231532   -0.58168392465076
C         4.99845471093348    1.14163094576077    0.35326586068017
C         4.37711683001919    0.82704751121691    1.70659501533729
O         3.36664784378293    1.79328345094039    2.14489153872438
C         2.37345339149500    2.04458761541584    1.21387046466956
O         1.37305648115129    2.67044353565579    1.56605870013773
C         3.86201093883842   -0.65175763369237    1.91563372400031
C         3.51102053731390   -1.11995788399253    3.46295365950158
C         4.69527574001223   -2.09221399953888    3.37216618404082
C         5.06681951736526   -1.75639692144195    1.96012174127264
C         2.62913091021571   -1.00732067260133    1.00879670641074
N         2.91259243408485   -0.76937350310957   -0.39930101101599
C         2.81489051629274   -1.94895041667720   -1.25522338160762
H         1.32265918100416   -0.39600084618434   -2.64924390437377
H         2.88341714048008    0.45556992169330   -2.82278913653076
H         1.54053242576413    1.45211753362143   -2.60509789660317
H         1.05644954610162    0.15653480952324   -0.38849051245329
H         2.01183308121105    2.45066119348610   -0.67510064938579
H         4.23788482385451    3.06556860537815   -0.59628379306714
H         4.24780674955767    1.67306213771755   -1.62100862262031
H         5.95669663949241    1.65792895005983    0.51938038096446
H         5.22747724370454    0.21870384803393   -0.18650659065058
H         5.11912642661320    1.10918775023300    2.46228962992011
H         2.49397567010590   -1.52075095095940    3.48037466905967
H         3.59510398391691   -0.31766229403456    4.20922929456341
H         4.33829370926378   -3.12257558064035    3.42616900888359
H         5.50235085242180   -2.04789338580387    4.11092856595285
H         4.90057768884449   -2.62422940074974    1.28378345269197
H         6.03837692623786   -1.30830014984570    1.75313661128316
H         1.79421633241565   -0.36633359236543    1.32643300563499
H         2.43385210050146   -2.08140320293965    1.09541563205026
H         1.84513270950344   -2.46487809564382   -1.26399774994219
H         3.48548927063283   -2.73461875111561   -0.89327687050580
H         3.11438867427327   -1.64903037329244   -2.26144975612573
