37
 energy: -49.579800061883 gnorm: 0.137701811476 xtb: 6.4.1 (79825abcba525fcdf90b791dcacef51065a7a4e7)
C         1.87462505915896    0.53373058204232   -2.34127676959218
C         2.04594194162778    0.36468117410829   -0.82510155003218
C         2.81620944556624    1.58507650633548   -0.24540740260439
C         4.33902681142556    1.47577416829711   -0.47115529178014
C         5.15295440555213    1.52313662059258    0.83332976602230
C         4.30767300859155    0.98283075196302    1.97792237682843
O         3.10593615882602    1.78349505023832    2.22597184172195
C         2.31826837831784    2.00929456316819    1.11018364502956
O         1.33081914089638    2.71463496312950    1.31986219508094
C         3.88026068909260   -0.53254258030126    1.84808289564827
C         3.68142416893531   -1.17044555732548    3.36140657750221
C         4.74924739108821   -2.21209589253431    2.99987808517793
C         5.12916518552399   -1.57715546180860    1.69711160049367
C         2.60909587796792   -1.01364486447485    1.05976049364880
N         2.72466271321627   -0.84687171191063   -0.38195357985993
C         2.48481072157722   -2.05073218814312   -1.17362360237558
H         1.22054657251824    1.39574569849572   -2.50596187246800
H         1.45936097550225   -0.33594243682637   -2.86879742705423
H         2.83661963886514    0.76652271908687   -2.80441689434958
H         1.03062273767387    0.45782455821158   -0.42897527219010
H         2.53372846403837    2.50323074162778   -0.77843701019542
H         4.56650551653460    2.30373299692944   -1.15923380763182
H         4.42351049692048    0.54366360872531   -1.03259619764224
H         5.46683513474873    2.54758949151787    1.08702339983979
H         6.02233563351608    0.88049546610609    0.66965729626115
H         4.96089094048120    1.17809975170939    2.83607857006469
H         2.69377388314455   -1.47999176978151    3.71360948525655
H         4.14813362571670   -0.50771259494402    4.10345972478920
H         4.28658359067038   -3.17579558374480    2.77801647082968
H         5.52348116001138   -2.44071789782559    3.73974189674255
H         5.17514254560465   -2.32735079223696    0.87656539286989
H         6.11959809699442   -1.12390231795288    1.73119374940660
H         1.74380698739967   -0.42704683932843    1.40037390083411
H         2.43589227722558   -2.07161958541519    1.28332240680066
H         2.87417731178565   -2.95568006633647   -0.68766932732786
H         2.96881848483186   -1.89311923703858   -2.14258043212406
H         1.45521474555823   -2.19079129787857   -1.50897157116614
