37
 energy: -49.576237698528 gnorm: 0.140253190864 xtb: 6.4.1 (79825abcba525fcdf90b791dcacef51065a7a4e7)
C         2.35277370606708    0.49099318670837   -2.43862033926665
C         2.24712530620725    0.47146717715802   -0.90722503315774
C         2.59914307970193    1.83536627141724   -0.24799459011843
C         4.10176916068276    2.12826709888728   -0.44345767576751
C         4.93051071404110    1.06465046725887    0.29702170273434
C         4.43825025201377    0.86648194453221    1.72353220066132
O         3.36692531386838    1.78692774925698    2.11315471788795
C         2.32481222820964    1.98712956224253    1.22416159006747
O         1.20082043494746    2.27230892284084    1.63869908818827
C         3.93179762574866   -0.62221878211719    1.87575513533322
C         3.77858129945903   -0.98791637531324    3.48180456070287
C         4.44208344272924   -2.33173842231473    3.15030506181241
C         5.00604113734081   -1.85466964113731    1.84683105135163
C         2.57185978674748   -0.83905755091962    1.11923571893276
N         2.77978779007359   -0.75134524854150   -0.31909001856266
C         2.54173555034073   -1.95804185388008   -1.10697633942109
H         1.70740719508746    1.26713878646271   -2.86183420421744
H         1.88523047849852   -0.45867622831113   -2.73287328899084
H         3.35685682499797    0.71450994760597   -2.80737752182707
H         1.17724159418182    0.39792383868135   -0.69180679783002
H         2.04921455695628    2.65945288090433   -0.72273990778802
H         4.20526288556359    3.14027742203348   -0.02412655905995
H         4.46521151949224    2.14802693176701   -1.47239046122018
H         5.97688479302039    1.40660206750482    0.32059397040565
H         4.82253148033189    0.12632833641843   -0.25387948549298
H         5.27499286588161    1.08117724777284    2.39808644468145
H         2.76814079101366   -0.95706188626827    3.89818997434265
H         4.45198612324081   -0.34735215609825    4.06821652637995
H         3.67528718684768   -3.09078885632155    2.98338171254735
H         5.13223926170514   -2.72271788295021    3.90523844843288
H         4.98073538094591   -2.62113391897366    1.04054626268693
H         6.01492354612413   -1.46470733323208    1.97965817227821
H         1.76080527864738   -0.18415644648597    1.46871350033144
H         2.29360054404995   -1.87067377009414    1.35929758091154
H         3.21755945293672   -2.69921673255145   -0.65908080190921
H         2.80527961361907   -2.00356901882404   -2.16832193951704
H         1.57420241021673   -2.45245227310783   -0.99936296449543
