37
 energy: -49.568253307311 gnorm: 0.138744903543 xtb: 6.4.1 (79825abcba525fcdf90b791dcacef51065a7a4e7)
C         1.18281960092791    0.72162684379337   -1.68131231183776
C         2.09744742746460    0.44689524008073   -0.47935849248350
C         2.88470683372046    1.76859997016046   -0.25123269416639
C         4.38760214629717    1.69868314873312   -0.59517917616203
C         5.17746598506781    0.93007060315748    0.47801812853161
C         4.39490963456270    0.55196196737292    1.72748309625210
O         3.44141933063363    1.57835883885745    2.15658564387120
C         2.60132299487079    2.10204801575406    1.18891986791257
O         1.61291003231904    2.73064063893234    1.56896896571264
C         3.83146250790852   -0.92397753824859    1.73256368683466
C         2.89233063695620   -1.09625403975026    3.08347331478113
C         4.10702775498244   -1.74581794853112    3.76064562756427
C         4.95462840480486   -1.80798612520564    2.52679164330392
C         3.38716821690588   -1.50578760696628    0.34228630853623
N         3.13117301614371   -0.55074637325215   -0.72639098051885
C         2.85098241316733   -1.43770251652726   -1.85260255125396
H         0.49445683905021    1.53469937979390   -1.43015564003737
H         0.62853571290809   -0.18542777305367   -1.95893573495849
H         1.73788273906240    1.07336299235923   -2.55441661428860
H         1.47859846312026    0.09973167560799    0.35308864205799
H         2.43840033309942    2.59906667677659   -0.81519973197022
H         4.87373402292096    2.64771018490201   -0.86672641167198
H         4.50461646291894    1.11537346451769   -1.51018788895938
H         6.11717243754675    1.41485571847146    0.78513443233112
H         5.55606532560536    0.02722236980386   -0.00893941934129
H         5.05162675902563    0.57078271054192    2.60476532029618
H         1.99390322555486   -1.71913339366564    3.09644695801663
H         2.71110528238976   -0.06901044193455    3.42931074108164
H         4.01803910176552   -2.71130750996752    4.26255038740140
H         4.51294669090195   -1.08985632537491    4.53785124865203
H         5.13554296948363   -2.75333102498085    1.96840469489900
H         5.89766361658661   -1.26323446513227    2.56536081584668
H         2.48461440844178   -2.11814387439002    0.48105236032381
H         4.16292531302027   -2.13803282671231   -0.10241227349888
H         2.07224002891363   -2.17171766509821   -1.60466983941787
H         3.73402396832920   -1.96223183443288   -2.23087402216264
H         2.36601363160380   -0.88736240323861   -2.66135080460398
