37
 energy: -49.579840965399 gnorm: 0.139438947500 xtb: 6.4.1 (79825abcba525fcdf90b791dcacef51065a7a4e7)
C         2.41982909267554    0.48148509621791   -2.45828737352664
C         2.16120337516264    0.46848055808071   -0.94512575625474
C         2.51468493397870    1.82500761915413   -0.27162208825786
C         4.00265992638886    2.15771731377859   -0.51061274919752
C         4.87760461246623    1.14450582644273    0.24719782806778
C         4.39974701324754    0.82544772329120    1.65658682071096
O         3.35317192374461    1.76721880375363    2.06218651134668
C         2.26743926710855    1.88725669501076    1.21179558168075
O         1.17146802888194    2.28471553937651    1.60853185532162
C         3.88978858417013   -0.64525367444631    1.92654181125486
C         3.75579280960376   -1.09279251785172    3.51347558840461
C         4.60439169546052   -2.34033752851379    3.23152509977004
C         5.04812417165717   -1.79922009302233    1.90676821695687
C         2.56987431603932   -0.82260394894888    1.09278837798988
N         2.80276919704289   -0.69132619968932   -0.33837707818639
C         2.56032237788311   -1.98216145704565   -0.97752833084626
H         2.38304333457350    1.54046493682731   -2.73254712880158
H         1.70580890611808   -0.16120638319684   -2.99136926117552
H         3.46138060765503    0.15816954067647   -2.52729476952870
H         1.07994944359848    0.39685101216553   -0.79604879352024
H         1.85301022115381    2.60600873994181   -0.67055450144683
H         4.22658367080415    3.14513036451791   -0.07981343602519
H         4.23980070679508    2.10056884765964   -1.57441807812401
H         5.89485483121264    1.55465415335202    0.34397385732418
H         5.05086725348702    0.23499904738249   -0.33450443021375
H         5.20426801286921    0.97233794222266    2.38626135020191
H         2.73885190318717   -1.33723152036078    3.83190861424546
H         4.31143602964472   -0.39753518629951    4.15810991520843
H         3.92271570482979   -3.15261721238450    2.97168472486026
H         5.27336841017505   -2.72805078501999    4.00693015009675
H         5.05666375585735   -2.38950723710235    0.96353378463529
H         6.04114233010883   -1.35550451177752    1.83902773926423
H         1.84446831438038   -0.13468499117264    1.55038342802140
H         2.19193734065602   -1.81888077816705    1.34554526624177
H         3.14202546146952   -2.74358089320186   -0.44035933796060
H         3.12942059168490   -1.86774218597852   -1.90543896853241
H         1.52152706044904   -2.30474225909114   -1.07233655933313
