37
 energy: -49.574330909617 gnorm: 0.151544749909 xtb: 6.4.1 (79825abcba525fcdf90b791dcacef51065a7a4e7)
C         2.33258012164647    0.35945475842095   -2.40360819787717
C         2.17736351094914    0.48006368550261   -0.88108537066880
C         3.01657285125125    1.66207805629735   -0.31779876751457
C         4.53172851588554    1.37472656542221   -0.25768016552049
C         5.07752104717924    1.66285128901041    1.15139656262314
C         4.17264245925536    1.02530323207956    2.19602591874446
O         2.87125159402760    1.69793511689188    2.22269903835896
C         2.33552738495995    1.99754332983616    0.98188329472406
O         1.23697760689825    2.54919517798071    0.90843412913930
C         3.78205253363684   -0.48484292169290    1.94543865929335
C         3.94487749351064   -1.40733637865213    3.30892630147414
C         5.04901164739248   -2.23333980798157    2.63469280654899
C         4.97402485512659   -1.44184163109394    1.36481288843423
C         2.49552991839289   -0.86379694205819    1.12688813318219
N         2.60926793639007   -0.79542507222308   -0.32297302533390
C         1.92990740255562   -1.99506794087634   -0.80554602977033
H         2.20443145039003    1.30458132609484   -2.94056591855817
H         1.51708482346120   -0.31244039562783   -2.70456964279246
H         3.27939638295849   -0.08472627042479   -2.72041523859130
H         1.11397681446956    0.65161092424446   -0.69070398710895
H         2.79367880798589    2.56139158821750   -0.90811788763874
H         4.98155498211144    2.05691548721458   -0.99455792987439
H         4.71102400048331    0.34639663160631   -0.57638715164121
H         5.09295067917842    2.75077855645114    1.32039784673664
H         6.11632775512610    1.37660932610799    1.33726262344032
H         4.61646031270161    1.10143762602561    3.19526810271714
H         2.96729792789584   -1.78144753721122    3.62467598464390
H         4.43533356470916   -0.70219317119242    3.99441989488388
H         4.75014630581134   -3.24763057290810    2.36286342448082
H         5.99596702186050   -2.26701001679679    3.18355184424666
H         4.66480309286986   -1.81683508957212    0.36383094909877
H         5.91848421831254   -0.92348154523976    1.20093279142317
H         1.55302549838195   -0.44255748325405    1.50515035491022
H         2.52503242231448   -1.92853605763964    1.38134865172922
H         2.47591575912839   -2.86801890221656   -0.42276664522654
H         1.77872080238742   -1.96102419152405   -1.88904329708670
H         0.87903102533908   -1.99702076122785   -0.50923923376947
