37
 energy: -49.583426099698 gnorm: 0.135657005829 xtb: 6.4.1 (79825abcba525fcdf90b791dcacef51065a7a4e7)
C         2.23881885193559    0.49267103265052   -2.42643082454524
C         2.11018110892503    0.39149118091736   -0.90002018330404
C         2.53578773112715    1.73392669403420   -0.24013534614355
C         4.00809672393860    2.09877536082398   -0.52486952543489
C         4.87383125859529    1.05807982932012    0.20578713152986
C         4.46473329137435    0.89723927631395    1.66293932347561
O         3.35578788853917    1.74917921380367    2.10020555940520
C         2.28950443755176    1.91690181221712    1.23343108415619
O         1.19754629351323    2.26927522639375    1.68062965633071
C         3.99051395100423   -0.58788604453639    1.91870240981763
C         3.70478574014892   -0.98699649734663    3.49847295492205
C         4.59937317180091   -2.22653219314454    3.35973114879525
C         5.08213060343657   -1.80215753625558    2.00638758323601
C         2.70924647185295   -0.94399971433709    1.08185814222699
N         2.83371628101826   -0.75098954149825   -0.35583542369737
C         2.70183341758754   -1.95271345653672   -1.17560185046340
H         1.67752164201122   -0.28929803851933   -2.94746798464419
H         3.28379219280954    0.57838515505210   -2.75466438853066
H         1.71236645508775    1.35756639370893   -2.83743984196961
H         1.02415533863681    0.42460072438359   -0.77385922278549
H         1.82537030008264    2.41409984033332   -0.72961959864154
H         4.23134604667763    3.08812877477816   -0.09819166581964
H         4.29315746921676    2.20051985105967   -1.57347426956725
H         5.93327848249744    1.34947512555273    0.13475454751636
H         4.77157423623318    0.14544190053978   -0.38770724013663
H         5.32953066104122    1.23214256849012    2.24708057392807
H         2.64283185603803   -1.08456287919040    3.73941607113447
H         4.08610028718331   -0.17769078358262    4.13667280553352
H         3.98832627930044   -3.12869689431033    3.42841890942346
H         5.35299820344727   -2.33094337588025    4.14729195670713
H         4.96641947645335   -2.53979329149458    1.18133760453820
H         6.13056058980301   -1.51111287318205    1.94601434611968
H         1.91654264173263   -0.27786771855999    1.45162619214189
H         2.34444878449718   -1.89588127043210    1.48202570312202
H         1.66346593847552   -2.19209659675831   -1.44239250503761
H         2.97315605203670   -2.80218726267804   -0.54096732870839
H         3.19028079571113   -1.84324651713627   -2.14595170404781
