37
 energy: -49.575577205539 gnorm: 0.151862822876 xtb: 6.4.1 (79825abcba525fcdf90b791dcacef51065a7a4e7)
C         1.62607393478131    0.51525768206037   -2.21801804537483
C         1.98101786407665    0.53852693790796   -0.72463671686945
C         2.74425051856805    1.86333651208824   -0.43989551796382
C         4.28695618355310    1.90691737038598   -0.43343199944174
C         4.97787470499800    0.83233181281163    0.42348110619320
C         4.23116834064823    0.66412578962383    1.73902648255500
O         3.17790952090927    1.64773390288928    2.00345836583604
C         2.38800375630228    2.16494136416786    0.99106784227425
O         1.50790621153982    2.94395271954115    1.35862163650485
C         3.74064135428069   -0.82678359615595    1.91921633469789
C         3.55066787942852   -1.20432104550123    3.51858503861790
C         4.75358962915527   -2.14901315182864    3.39005180853608
C         5.00855467242358   -1.85907614560902    1.94242728648197
C         2.51591699017744   -1.19875750553572    1.00792208950688
N         2.63750432186680   -0.71034259184663   -0.35823155384733
C         3.27508741102560   -1.63365488957531   -1.29339602657993
H         1.04893277972445    1.41666105756119   -2.44690654853170
H         0.93967679775681   -0.31737222593145   -2.42451227896020
H         2.54241947583447    0.36268911215547   -2.79348150958845
H         1.01444806905010    0.58497351457229   -0.21468542051444
H         2.32483555467327    2.72541128319031   -0.97640406315473
H         4.67192709974364    2.85428800761786   -0.02722922688313
H         4.45560968923294    1.88358253945157   -1.51148346496692
H         6.02183045939923    1.15443432191987    0.56056358985390
H         4.87411991489158   -0.06432536791106   -0.19364197026644
H         4.91852418298148    0.71458428558305    2.59123044140491
H         2.56636120143253   -1.65613851849726    3.66798438923879
H         3.66546095995678   -0.33098835332885    4.17569090407781
H         4.43839918098324   -3.17363817090816    3.59692378407402
H         5.57912387692746   -1.82881760079404    4.03431295597435
H         4.85788256090484   -2.68221254178044    1.20897829379905
H         5.91565871134298   -1.28051900536800    1.76924744037835
H         1.68075940791703   -0.63166474186216    1.44353338428927
H         2.43235272508488   -2.29033090219936    0.98009332799731
H         3.67851806012516   -2.46809252353301   -0.70378081527514
H         4.08292526393224   -1.18034690567269   -1.87639907093400
H         2.47233721411722   -2.08418968959846   -1.88055289969565
