37
 energy: -49.574173907074 gnorm: 0.136224799647 xtb: 6.4.1 (79825abcba525fcdf90b791dcacef51065a7a4e7)
C         1.83509060306662    0.61696848584818   -2.39115048230929
C         1.99827546245998    0.40051674727534   -0.88011314996456
C         2.77779219008780    1.64404552782396   -0.36561150834911
C         4.31447826830582    1.54758059286480   -0.47131033333144
C         5.06809271435541    1.55983849922378    0.86970330621414
C         4.34070242346554    0.88978941640956    2.02662200532530
O         3.11763936482024    1.69426777043628    2.08740545589122
C         2.31662168285054    2.03799035977545    1.01194523492340
O         1.29280556088596    2.67896992496353    1.25167822076229
C         3.94051050858135   -0.63137662797930    1.87898671173124
C         3.72472862798559   -1.23553334681612    3.40379409513257
C         4.76445548513200   -2.31431860805453    3.07036475522506
C         5.10951075663900   -1.76365770085790    1.72040297193047
C         2.61516259970536   -0.85870835829653    1.06624764945760
N         2.72374557423320   -0.76174627009905   -0.38237808734757
C         2.58942177451110   -2.00051782070552   -1.14458055635465
H         1.39285721319707    1.60954949215663   -2.52238495092581
H         1.21167480561431   -0.14867227014096   -2.87302229345930
H         2.83429888163878    0.59421352273542   -2.83295310089410
H         1.01580984789278    0.43283515188807   -0.40034066505525
H         2.44738642578226    2.52225367686075   -0.93701831010641
H         4.67680009228271    2.28568796718794   -1.20249759482028
H         4.60097649529085    0.62072324534196   -0.97134803065295
H         5.33812412051179    2.60421511508054    1.09048775631475
H         6.01716239148820    1.05681330932963    0.66517348939735
H         4.84842198727545    1.19779117656919    2.94782309184756
H         2.77206408909658   -1.73037146807737    3.61087943872586
H         3.93783455822633   -0.59841375074473    4.27347222126733
H         4.47028739092469   -3.36194216554689    3.15951336280508
H         5.62222644126684   -2.29740564411230    3.75084057994304
H         4.96869552857853   -2.49499075095444    0.89364661941638
H         6.13271881351022   -1.39230010123974    1.66847846797117
H         1.90237161573673   -0.22267958000184    1.61052331602302
H         2.33806105176901   -1.87937050493596    1.35041915061176
H         2.96229288449285   -2.88019118056951   -0.60251923690331
H         3.00783150064136   -1.75471378350853   -2.12564955106239
H         1.53769527197731   -2.23838800663206   -1.31613762246752
