37
 energy: -49.577708334471 gnorm: 0.145402055925 xtb: 6.4.1 (79825abcba525fcdf90b791dcacef51065a7a4e7)
C         2.42033046373794    0.32813695446493   -2.42020798788766
C         2.16528360720634    0.42662377721635   -0.90959025739083
C         2.88643566455356    1.65660402588731   -0.28845387753897
C         4.40992013555239    1.41353905326646   -0.24607090025253
C         5.07888026412175    1.74748819655394    1.09831479886504
C         4.20206986126080    1.07235322033242    2.14326436172576
O         2.87733607705180    1.69252144166464    2.22832368452311
C         2.23072542633788    1.95580535579431    1.03293024279077
O         1.08216871093095    2.39572583587669    1.09468463683375
C         3.88470100853761   -0.45353145053053    1.88471280616074
C         3.95939525235113   -1.31833863288222    3.29295072640330
C         4.91430378817774   -2.32757426963745    2.64058746832990
C         5.12724496921944   -1.42846499931437    1.46120374625813
C         2.54074225623650   -0.84599532910975    1.17160792133845
N         2.62209912440044   -0.80696588895919   -0.28151499663087
C         1.96273066316874   -1.90943513247197   -0.97674536386718
H         2.59096817358643    1.33851463264719   -2.80495417718692
H         1.62466971472669   -0.23574503375046   -2.92618678484583
H         3.33758044829209   -0.21082692312681   -2.66979750841435
H         1.07726463803711    0.50126206480172   -0.82527742970750
H         2.60862942342769    2.55296790363681   -0.85966201369440
H         4.91975491029448    2.00701862852610   -1.01974067150539
H         4.60349790607563    0.34439869681875   -0.34926984979097
H         5.24089165801201    2.80658234022385    1.35219892979901
H         6.12607602631755    1.43292511151124    1.09273451112765
H         4.64579990340493    1.06985507499927    3.14543855188748
H         2.98632510550100   -1.71496843940935    3.59484163539029
H         4.38946177577139   -0.71202719244278    4.10233616615773
H         4.33359487267204   -3.19024000399947    2.30804807537804
H         5.76646075438026   -2.51424096662541    3.30246997876836
H         4.92913886394184   -1.88742819746219    0.46706603362379
H         6.10964195725169   -0.99820943876731    1.26798454074962
H         1.82993361712090   -0.06351162138831    1.47378324527440
H         2.34074728267348   -1.88530429204684    1.45290637658038
H         2.34797417782930   -2.84562705343577   -0.55034099049438
H         2.34543029374676   -1.98169344975669   -1.99963461774442
H         0.87657432421439   -1.86571507948799   -0.87429705234371
