37
 energy: -49.578313772589 gnorm: 0.151189421987 xtb: 6.4.1 (79825abcba525fcdf90b791dcacef51065a7a4e7)
C         2.15357646096984    0.55149718239305   -2.43489018373640
C         2.12406359582580    0.50039322937190   -0.90086547371913
C         2.75216461697047    1.78308773702171   -0.28531209730478
C         4.26329616159876    2.06971475415592   -0.41262361936328
C         5.06915703891544    1.06223653613992    0.42521793484361
C         4.38829047397503    0.76570624082555    1.75375615022382
O         3.37189092605120    1.75747225443357    2.11444358240695
C         2.37226366966818    1.89554040705279    1.16677709471977
O         1.24540986209674    2.26532804731759    1.49841509133732
C         3.78171374328754   -0.68134275348798    1.93817349724491
C         3.63701756928168   -1.13855109792234    3.52140697337152
C         4.90396957793297   -1.99174790676090    3.37017035499715
C         4.93775339376106   -1.83633464334049    1.88040770178436
C         2.50594764366671   -0.98178412690032    1.07161282837850
N         2.69170699319521   -0.72365541186449   -0.34915155485538
C         2.44259145756476   -1.88547515526326   -1.19866126923433
H         1.95718608190729    1.57282971289117   -2.77594821890820
H         1.42149962372507   -0.08746338286349   -2.94757561781343
H         3.11425007795895    0.40540784104501   -2.93477878631083
H         1.04867641576126    0.56803728588003   -0.71263295585236
H         2.13960697554583    2.48239369761987   -0.87069022900772
H         4.41152279748867    3.06074882555305    0.04190334054886
H         4.75529526071372    2.11516397242865   -1.38579098007223
H         6.13468955525146    1.27260336075460    0.60624693086848
H         5.01659087534738    0.16891826261452   -0.20312855292321
H         5.15107508455681    0.96415341350297    2.51535581688498
H         2.71845685661440   -1.72512735341243    3.60797107984148
H         3.71265534987519   -0.29671900767164    4.22374109280211
H         4.71529366423475   -3.01632247080753    3.69673707617699
H         5.81557415585494   -1.58979683185812    3.82461158983288
H         4.47654753378092   -2.65854698688618    1.28925708033434
H         5.81642930514934   -1.48708696051079    1.33864017434504
H         1.73401098157416   -0.27491472731127    1.40819717895199
H         2.14563915113974   -2.00073638920376    1.24825931699057
H         2.71029569758907   -2.80853559054879   -0.66670033942768
H         3.08156725998320   -1.95514380685322   -2.08457259987355
H         1.43280702406756   -2.17846486261215   -1.49299968723882
