37
 energy: -49.575030708070 gnorm: 0.156663904698 xtb: 6.4.1 (79825abcba525fcdf90b791dcacef51065a7a4e7)
C         2.28240205174784    0.64727140992680   -2.40175076537740
C         2.12019583416842    0.51382096327123   -0.88102903473808
C         2.72111751567686    1.83539814448872   -0.32331139806007
C         4.25167634093994    1.98046838032893   -0.45831565751898
C         4.94053881065664    0.89790080151786    0.39016447597648
C         4.25988316124555    0.72271051189116    1.74017912879678
O         3.17763560763981    1.63718100326740    2.11333761985676
C         2.31601851933431    2.04785596381033    1.11066552933191
O         1.30796130198713    2.57090302320168    1.58686777923952
C         3.76706623564299   -0.76882932169763    1.90851317210337
C         3.69751214519421   -1.21340808972210    3.50040408352317
C         5.02544171544582   -1.94933494505099    3.27457356158641
C         4.92123648402708   -1.92000845228688    1.78026147089222
C         2.42948050800568   -0.92918787721016    1.09985924516330
N         2.67429571974548   -0.71162301450653   -0.31874552247042
C         2.46668974807496   -1.92259737112671   -1.10867672900381
H         2.08241848661601    1.66791807381068   -2.74277402846945
H         1.69338500626729   -0.07330959078979   -2.98559612272359
H         3.29677272006025    0.49312709579475   -2.77780421527753
H         1.06001572045316    0.65385932790236   -0.65108951517010
H         2.34371003883566    2.73113711179146   -0.83530607205741
H         4.76310411342387    2.93367422067049   -0.25693375566662
H         4.41575504035516    1.91488507506415   -1.53533027808016
H         5.95960882813337    1.31381783010327    0.42007407231737
H         4.94049145290417   -0.06666487193282   -0.12482397502622
H         4.89564737818444    0.93425131673017    2.60753722120773
H         2.85297097777851   -1.89043808306598    3.65435031063836
H         3.54845357385757   -0.40594117584310    4.23078363532683
H         5.13692126171855   -2.92555124282085    3.75056884849576
H         5.83051785213525   -1.35499431300599    3.71922627842759
H         4.54507955333429   -2.87520728895657    1.35095483935274
H         5.83120009194392   -1.60834192758034    1.26802366709753
H         1.68637171408355   -0.28934032096131    1.59707551793762
H         2.23263794970342   -1.99896084908275    1.22685818222323
H         3.03192284489251   -2.70926469091017   -0.59064715580361
H         2.90842388498256   -1.89192470049581   -2.10963268647811
H         1.44002054470299   -2.29147438970963   -1.15365202034942
