37
 energy: -49.578078724200 gnorm: 0.142237640921 xtb: 6.4.1 (79825abcba525fcdf90b791dcacef51065a7a4e7)
C         1.73526952658673    0.41022493996093   -2.26822788644185
C         1.92943445562452    0.46304122339172   -0.74631300966296
C         2.57756664849082    1.81154088073208   -0.32181868080824
C         4.08909635600023    1.92361993905503   -0.61267616603062
C         5.04991140425495    1.17149446033556    0.32409717326525
C         4.35419869701577    0.79238318562444    1.62362852915508
O         3.24704894913030    1.64386255892936    2.06630855725781
C         2.27272418466874    1.98075371477986    1.14241199578551
O         1.20301677370393    2.46405790108036    1.51479526473053
C         3.91177865796787   -0.70035778539853    1.89174194262240
C         3.69497003244946   -0.98414514684834    3.50700150907108
C         4.61363624035295   -2.20970044115213    3.40674523036647
C         5.10083467694129   -1.81204311116524    2.04689460516064
C         2.65889374350395   -1.14522474506646    1.05439831242808
N         2.67336664925651   -0.72242195296373   -0.33870496746035
C         3.16478771845681   -1.72884259030086   -1.27634735683917
H         1.38608741081326    1.41612060346832   -2.52171492241898
H         1.07939037810703   -0.44517548446730   -2.48075112120565
H         2.67213076112414    0.37091655759538   -2.82936102570611
H         0.94017528087574    0.51629944264006   -0.28263785811079
H         2.07518866960777    2.60650816969267   -0.88976817536323
H         4.29043139410992    3.00188809166239   -0.52597884626877
H         4.22982678441620    1.63815482470003   -1.65665322244209
H         6.00806141242794    1.69438581050801    0.46872924463624
H         5.24089970780331    0.25690690399311   -0.24392845606118
H         5.02745417277671    0.93187937408637    2.47716446356697
H         2.64052416434153   -1.20054601441841    3.69840007332472
H         4.09134764160452   -0.12503184164438    4.06600480664336
H         4.14100012112692   -3.19378068263548    3.42083912594111
H         5.42796347082785   -2.10002156112148    4.13058645254214
H         5.21157258858475   -2.52548548269737    1.20017143445526
H         6.06915454938116   -1.31263966631518    2.06948180731318
H         1.83896516817164   -0.60288080581278    1.54675974339325
H         2.55313157404035   -2.23522378801090    1.05692161920730
H         2.45063942382481   -2.55100592669985   -1.42032032412940
H         4.04539371423041   -2.18796791628137   -0.81621726282164
H         3.36005747805642   -1.34572582913871   -2.27995781364569
