37
 energy: -49.570835485164 gnorm: 0.143404206687 xtb: 6.4.1 (79825abcba525fcdf90b791dcacef51065a7a4e7)
C         0.81007143331088    0.62596768583587   -0.88805489453047
C         2.14845952989317    0.34624643951804   -0.19006648691868
C         3.09761252146566    1.56280601853659   -0.38452348880462
C         4.62374466549186    1.42912934962401   -0.57142750535211
C         5.40428134858355    1.17675002531745    0.72990634420351
C         4.36806376657409    0.76498505555887    1.76587258896257
O         3.34193463278607    1.78842234378774    1.98127553326091
C         2.73640376150998    2.32879301019957    0.85979383324453
O         1.98758211479404    3.28511659217857    1.06286414182266
C         3.95309089128194   -0.75729279353828    1.68610060205791
C         2.68330957946894   -1.33912910872723    2.57251282678024
C         3.67824690621654   -2.16682551389611    3.39774193347533
C         4.89034040546834   -1.65336631206910    2.68228655779262
C         3.77645678549795   -1.44265429730138    0.28329926603323
N         2.70318974708605   -0.94799117040244   -0.56706224064265
C         2.76349571647698   -1.40327522239096   -1.95365160374381
H         0.49770546489721    1.57632443677444   -0.44391588003042
H         0.11746914125571   -0.17797368240100   -0.60339050582004
H         0.90170947526729    0.79903336251808   -1.96312478394636
H         1.95908432270554    0.15048052188995    0.86930953429989
H         2.74885222784418    2.08974903463475   -1.28320062268359
H         5.00805533266889    2.32870300407107   -1.07520025830204
H         4.86399062763947    0.52524518839141   -1.13397420752749
H         5.69719057608447    2.17141063839669    1.10036514440007
H         6.21328024008758    0.44144666329726    0.70869756952324
H         4.76911246075946    0.86818169235879    2.78064651324981
H         1.94017954609537   -1.93209628850772    2.03263644643439
H         2.19156149220121   -0.54583365877467    3.15263497897097
H         3.61054456757237   -3.23868913818854    3.20147113421746
H         3.69708455457474   -2.02341732220625    4.48318361489178
H         5.50570633191582   -2.44754047777832    2.20394022902093
H         5.50782392481208   -0.99665465664306    3.29466002902932
H         3.50858979302228   -2.48684771617848    0.49950976539560
H         4.69761915491075   -1.48005978182999   -0.30775964712813
H         1.78591954088312   -1.43312621183305   -2.45379388046575
H         3.19966974347353   -2.40432396686641   -2.02872704012573
H         3.39530755742217   -0.74572265322381   -2.55413566232567
