37
 energy: -49.579197322980 gnorm: 0.145611533548 xtb: 6.4.1 (79825abcba525fcdf90b791dcacef51065a7a4e7)
C         2.09569145378175    0.52942338721264   -2.40507351492555
C         2.00014252589508    0.45785670875395   -0.87456278537576
C         2.67932020071688    1.72568910838078   -0.28292033354311
C         4.20146913776100    1.93618059687927   -0.42657899790417
C         5.03181927927664    0.92665917344111    0.38446215704285
C         4.34092470249604    0.83073614717618    1.73723220019416
O         3.35353914939825    1.85388804240612    2.09077609200472
C         2.36201267903188    2.06650081180645    1.14840656646954
O         1.29617848602363    2.58487677360620    1.48278659819206
C         3.73435259465347   -0.61565636204819    1.92674457588574
C         3.59388390760146   -1.19224474266128    3.47090101673507
C         4.65749992075952   -2.26611082970945    3.20347382181173
C         4.94363930254600   -1.71293243272569    1.84082738534368
C         2.46756444281868   -0.94959274327531    1.05927359661469
N         2.76264841375205   -0.66228084570279   -0.33718112699050
C         2.82934870025215   -1.93106630546873   -1.05779544169817
H         1.51403993160065    1.41878379396250   -2.66723660711357
H         1.66633241434085   -0.37491692940995   -2.85770236450927
H         3.07995706659926    0.64826933775017   -2.86466177014976
H         0.95562902319121    0.47093307268816   -0.55008574225280
H         2.13722313096146    2.51763644155512   -0.81759169059355
H         4.43142811782533    2.92606479162754   -0.00472288023623
H         4.39351647674193    2.00222807981207   -1.49893110058007
H         6.03381474019603    1.37286369015508    0.48085660791737
H         4.99781783055905    0.01276701257914   -0.21490840624387
H         5.09784163586069    0.96940345945843    2.51768325089727
H         2.57587838610485   -1.47294302026559    3.75408305646377
H         4.04949471876825   -0.44005767683799    4.12992224268168
H         4.47957209365435   -3.33890733509654    3.30066850634881
H         5.54963423797831   -2.25877806575950    3.83841240197504
H         4.92101039440557   -2.43411764574535    0.99372475694744
H         5.93884657909882   -1.27785515463277    1.75235363721212
H         1.64273712106684   -0.35608667323307    1.47909503628859
H         2.25978831153658   -2.01620339914766    1.19514384201423
H         3.31405521284796   -2.69636179147545   -0.43644933817810
H         3.47063904495339   -1.83013217097142   -1.93901147166762
H         1.80580435777414   -2.26658284927477   -1.23648042158136
