37
 energy: -49.571720253511 gnorm: 0.150343666836 xtb: 6.4.1 (79825abcba525fcdf90b791dcacef51065a7a4e7)
C         2.33846948170743    0.29039836952981   -2.40015835525190
C         2.27603066448170    0.38410293273188   -0.86913408094279
C         2.84123693791327    1.73499492869153   -0.34534519360210
C         4.36408645377377    1.48488724690159   -0.32930274937291
C         4.94185367835828    1.66974189390621    1.08435081561560
C         4.06135005662180    1.01128388141728    2.13680971156123
O         2.73924086222907    1.63879288477951    2.20768311609557
C         2.24955446092311    2.08738239286507    0.99303751867857
O         1.28279688276924    2.84633660502224    1.06981294058205
C         3.85741815475862   -0.54450352858638    1.95287158285622
C         4.02240476000396   -1.41892434582952    3.34742253862450
C         5.00589895476374   -2.35845208578763    2.63607768872726
C         5.08782580848886   -1.48236683367556    1.42345655443056
C         2.54110758583193   -0.87425693907155    1.16081048399915
N         2.76622569832897   -0.85466382160612   -0.27746849046580
C         2.09111867862672   -1.96482826383993   -0.94478842537206
H         2.61505320848981    1.20324191903823   -2.93702705692930
H         1.46241644039235   -0.04875671905313   -2.96985859048967
H         3.15860333810424   -0.40181948169325   -2.60592383338901
H         1.22390559075067    0.56913920231126   -0.63406127543351
H         2.37986605020785    2.43589241701919   -1.05443113237323
H         4.95139727999226    2.24537825443764   -0.86543132352692
H         4.57693981074659    0.46569496102758   -0.65660080175662
H         4.86901679073459    2.73639699403955    1.34765093259920
H         5.98705120824792    1.34858017615620    1.08851233702531
H         4.47416909315156    1.13271315216156    3.14482314337626
H         3.07430672134699   -1.69894074403612    3.81434839550515
H         4.59242740092239   -0.80993597164872    4.06288247085786
H         4.55746014443902   -3.33788791910591    2.45829821134970
H         5.94120464704323   -2.48240569511512    3.19190425684590
H         4.88824992910626   -2.12087524485263    0.53425494003514
H         6.00978615236995   -0.90188526053048    1.39921555999877
H         1.66676955486218   -0.31965020335463    1.53065365430828
H         2.35664884515162   -1.90841569425773    1.47029486291413
H         2.34047771070674   -2.92373774337574   -0.47044545833253
H         2.44657003373510   -1.98715078889600   -1.97974675274266
H         1.01679209555993   -1.77398343958924   -0.90550301793115
