37
 energy: -49.578422923502 gnorm: 0.137088016938 xtb: 6.4.1 (79825abcba525fcdf90b791dcacef51065a7a4e7)
C         2.31345200991742    0.53943704459049   -2.36048571979252
C         2.14804409630706    0.32355103261430   -0.84960917554787
C         2.58968480877943    1.69726310248121   -0.26944479524434
C         4.08336339391049    2.03831607595729   -0.45515696574404
C         5.07122353591246    1.16229198514443    0.33422046838793
C         4.49829971239602    0.92593061140324    1.72433373957143
O         3.38513812391927    1.81170266886840    2.07510780629430
C         2.32724099521766    1.94370604234464    1.19203475687276
O         1.27513727300331    2.46141306086877    1.56831040748688
C         3.91226305550989   -0.52914947781707    1.91194742460327
C         3.68664974209212   -1.05502965314057    3.46409219750601
C         4.40512832964368   -2.34367592217110    3.04081449029086
C         4.99984396646943   -1.74529204526829    1.80269597997743
C         2.62487135189624   -0.91571474507229    1.09833725311999
N         2.88594145484340   -0.82158668800678   -0.33089008319119
C         2.43482665316576   -2.02051568268792   -1.03275557742243
H         1.74854556464240    1.43237043393935   -2.64607385264285
H         1.85313167212833   -0.22336364289750   -3.00336499632514
H         3.35484126003518    0.70226391436183   -2.64879174335432
H         1.11253040108983    0.09997152924472   -0.57723371807698
H         2.00494159922997    2.51181713667489   -0.71833270890124
H         4.00420836229454    3.06292993987084   -0.06194538473864
H         4.53472081057857    1.98708569744090   -1.44754570305292
H         6.01045550899136    1.71337454781134    0.49712096165955
H         5.29173403937902    0.23779889988708   -0.20641591323920
H         5.29788277685542    1.10576778542046    2.45205704455724
H         2.65232813336360   -1.09275440975786    3.81633427906207
H         4.30174596298007   -0.43734314425179    4.13326749843935
H         3.67242666954859   -3.12269174425292    2.82108718361581
H         5.08570782725067   -2.69425575337103    3.82376387596313
H         5.11089291215544   -2.31141853291405    0.85118561905979
H         5.98043895317559   -1.37618431168306    2.10227955353206
H         1.68744555073282   -0.46499389606807    1.45460004882745
H         2.60828042689290   -1.97706739414834    1.36767948470388
H         2.96792234078596   -2.84130396553706   -0.53395285944185
H         2.73928525021159   -2.04169159024081   -2.08386891188840
H         1.34954267685710   -2.12150183755331   -0.96869948796140
