37
 energy: -49.571633050477 gnorm: 0.157013523526 xtb: 6.4.1 (79825abcba525fcdf90b791dcacef51065a7a4e7)
C         2.04988878312732    0.69620480984229   -2.39008653213881
C         2.09193850314570    0.42632901720917   -0.87942000173958
C         2.67969936486655    1.73026679180064   -0.26867819399209
C         4.19277143848635    2.00703101792660   -0.39475885421073
C         5.02862671910256    0.98991157878334    0.40099022994707
C         4.35677465350600    0.64738581622158    1.72303948265417
O         3.36352488492556    1.65776781676631    2.09633082649793
C         2.33999138552562    1.87668368066473    1.19032625335131
O         1.33118087133746    2.40916496875808    1.65432108894933
C         3.74494495727481   -0.80616455173313    1.81658994376718
C         3.57250131785082   -0.94543041453612    3.45594132106685
C         4.80342841795730   -1.86198402967482    3.48300879537438
C         5.00053860933268   -1.83783597006093    1.99799975844063
C         2.55294934785933   -1.15539627456717    0.85432425001600
N         2.86624692821544   -0.75187143936519   -0.50902485886184
C         2.58732062031556   -1.86932003443118   -1.40738960657915
H         1.58717874232861    1.67563216038033   -2.54703045681364
H         1.49717142937321   -0.16551421170703   -2.78883122300072
H         3.04925300848454    0.56780541261072   -2.81306320737417
H         1.07675611618505    0.35405415092184   -0.47861347161264
H         2.10976030633041    2.60145527587464   -0.61956758179174
H         4.46749081581809    3.01521632646329   -0.05007628252452
H         4.43638290934745    1.98923883120443   -1.45848831748845
H         5.88415911574830    1.59052263807350    0.74699015190458
H         5.33203030090933    0.13407340782010   -0.20817915230902
H         5.18602406918617    0.73017318940259    2.43490138394830
H         2.63857650638334   -1.40280936410798    3.79344358141296
H         3.69685209950736    0.07397302225334    3.84713064341058
H         4.66482982958878   -2.79468659833835    4.03333034787943
H         5.63563965104272   -1.50808344964694    4.10049017435050
H         4.76583115631533   -2.86587664988578    1.64268607814806
H         5.94607436702631   -1.50467528049711    1.57077213482654
H         1.64954455873282   -0.67209927248224    1.25322698616815
H         2.38496730547245   -2.23411860692720    0.94052221450596
H         3.11775535890002   -2.73370669728013   -0.98529571436374
H         2.91700556916355   -1.59159580040539   -2.41345112656572
H         1.53777661283363   -2.15894582353313   -1.32543245715801
