37
 energy: -49.581967496575 gnorm: 0.138282128446 xtb: 6.4.1 (79825abcba525fcdf90b791dcacef51065a7a4e7)
C         2.11058257163465    0.53189034748896   -2.43661705790406
C         2.09250117447924    0.46627584199278   -0.90296708133982
C         2.58475679938272    1.80530277788016   -0.28376329447127
C         4.09865342885633    2.07195991253655   -0.42121440444953
C         4.96403750788997    1.03223224685978    0.31123312042841
C         4.41133789420591    0.84244530132205    1.71658979280102
O         3.25842904049274    1.66556708422166    2.09080231838466
C         2.25407049152045    1.93990725805448    1.17844788704288
O         1.15987619773167    2.25184014908374    1.64957724639961
C         3.91798351715507   -0.64824228261191    1.89079636450639
C         3.64820648629698   -1.07266517706203    3.46676916919181
C         4.71360636573564   -2.16696704736302    3.31376192018475
C         5.20670567494909   -1.64906332977669    1.99720724733902
C         2.70277483901006   -0.95991012487886    0.94480343667176
N         2.85123568792219   -0.70464122640586   -0.48085627127217
C         2.63021746558027   -1.97622907871494   -1.16479027688954
H         1.46277488006177    1.31286177154509   -2.84702993723048
H         1.66519753901405   -0.37977634260200   -2.85798326446673
H         3.08249151614831    0.72669753899152   -2.89658192081263
H         1.07603236444475    0.36268179862888   -0.51242357758035
H         1.96139500787594    2.57378151953296   -0.76103024813867
H         4.28457936430364    3.10954640105672   -0.10568271677738
H         4.38536607380704    2.08513741407279   -1.47421283304496
H         6.00523915735373    1.38940649266390    0.33789659851792
H         4.85178165951893    0.02410651559392   -0.09703295643277
H         5.10829450200091    1.11045107710084    2.51888655483511
H         2.65352425282860   -1.45999217548856    3.70320918607410
H         3.91642935284818   -0.20727683813964    4.08872984640658
H         4.16081598846140   -3.10365179222441    3.21867274932916
H         5.43102180115180   -2.35199753682365    4.12010131594581
H         5.48722803451828   -2.43086403023154    1.25673584458209
H         6.01793245380383   -0.97924727763287    2.28148692165591
H         1.90093074142940   -0.32085293532102    1.34165548966749
H         2.56657018845779   -2.00455564874340    1.24389197036105
H         3.09729245607018   -2.81994238544043   -0.63878897465418
H         3.06835817637213   -1.91826626237695   -2.16611725755703
H         1.55285286316500   -2.14414207172076   -1.22165354802007
