37
 energy: -49.582367684451 gnorm: 0.131063926158 xtb: 6.4.1 (79825abcba525fcdf90b791dcacef51065a7a4e7)
C         2.48948568306536    0.41625991539921   -2.36923986142783
C         2.17699483126716    0.43461170647113   -0.86633362045968
C         2.54826946270890    1.83336118712355   -0.29679244358173
C         4.06214312507013    2.08268620474604   -0.46384165279942
C         4.81798572567749    1.08491205186291    0.43033468207348
C         4.24755489748682    0.90101214169547    1.82937464830362
O         3.07427560098345    1.73227250592256    2.11077330862135
C         2.13530329778304    2.02793651409780    1.13747836584025
O         1.03947216333633    2.50684011691554    1.43130081062302
C         3.86611610129772   -0.62457546016829    1.98097568767828
C         3.87548637081279   -1.25543096165925    3.51020368462896
C         4.93665663683275   -2.27043930501977    3.06336989665657
C         5.02732965492660   -1.73245794530921    1.66800547918536
C         2.54438177030971   -0.83423438603559    1.15766946082689
N         2.87867515344178   -0.68545719256284   -0.25152242228187
C         2.60282351535588   -1.94309881039795   -0.94130058091575
H         2.21151842124810    1.35386681019740   -2.86080615661669
H         1.89961455984402   -0.39467305325069   -2.81811985638414
H         3.53210686414866    0.30738258214774   -2.67780318271770
H         1.09447399497662    0.36329710893627   -0.72659214567548
H         1.92089244006791    2.54042419258425   -0.85659886916201
H         4.36858398025901    3.11924358774797   -0.25803295731249
H         4.31166421084439    1.85372303592732   -1.50138614797412
H         5.80752232584806    1.55170142866208    0.55406933684456
H         4.83248073884646    0.08532136042193   -0.01261949483537
H         5.00276518631398    1.22587924396882    2.55420186109181
H         2.91417453433001   -1.72695955475941    3.73124479916614
H         4.17924996549436   -0.60835804177212    4.34488918221789
H         4.69530193317681   -3.33166174379604    2.97646589519391
H         5.86823613782948   -2.08327463685439    3.60764320264664
H         4.53414501359798   -2.43160667911425    0.95655414286535
H         6.00300913514207   -1.38008232923486    1.33418166699213
H         1.78247772964039   -0.11771258326786    1.49669504816875
H         2.28174903483000   -1.85221795804819    1.46430187428503
H         2.97528813920687   -2.84842944613479   -0.44296825119265
H         3.11620944443807   -1.99496608550197   -1.90656084236861
H         1.54146764993463   -2.12130187424588   -1.12544750730925
