37
 energy: -49.592201446952 gnorm: 0.124311228211 xtb: 6.4.1 (79825abcba525fcdf90b791dcacef51065a7a4e7)
C         2.21405077680292    0.44358603919315   -2.38349058946972
C         2.14107536840246    0.46575379178275   -0.85022687289612
C         2.67304114456451    1.82495762809669   -0.31329168245705
C         4.18221135429191    2.10033162523627   -0.48198151437606
C         5.02144325121630    1.17209464910327    0.41270754855694
C         4.41706553197105    0.87712029819835    1.77807965791525
O         3.40045217610053    1.89745712037091    2.04673062422171
C         2.35093253537089    1.98501215085890    1.14826978874651
O         1.22229116078090    2.27641436631786    1.54548452906963
C         3.90064358025714   -0.60975953534651    1.91369903039678
C         3.74974660831724   -1.13295438486856    3.47578160123059
C         4.56419845702059   -2.37484628400767    3.08802213990223
C         4.98296108334378   -1.82560077762335    1.75849040670558
C         2.53911236489521   -0.85289754204173    1.16811989904827
N         2.74061613409802   -0.72880810637551   -0.26844073978645
C         2.56010907379812   -1.96256772889805   -1.02923297618586
H         1.74860909201624    1.33492997172777   -2.81578670637561
H         1.68100407564455   -0.39483851220362   -2.85248839542269
H         3.24945188806930    0.35290548326361   -2.72090145820090
H         1.07096248973285    0.49707179050892   -0.62585574855410
H         2.04948521365093    2.58204481276612   -0.80818585390710
H         4.34278764941445    3.17302149901012   -0.29687046402845
H         4.56322078197009    1.85500927596674   -1.47487235963244
H         6.05916021065296    1.52366149031184    0.52192986135671
H         4.97232226438786    0.18143727358343   -0.04749365328862
H         5.06447834798441    1.09462734611087    2.63528618028323
H         2.70925626139942   -1.29848445367553    3.76784060960024
H         4.25722244346764   -0.43370195583826    4.15489122428345
H         3.90549624729532   -3.24076373803648    2.99694073058793
H         5.32011390306119   -2.64574607657638    3.83254181731175
H         4.81977520941405   -2.49488793401652    0.88463223610818
H         5.98246288131603   -1.39438544354118    1.70743311713045
H         1.87723609446033   -0.03272179844926    1.48128303180860
H         2.13732299727687   -1.79833866476272    1.54758834273373
H         2.90519433686765   -2.84075661120146   -0.46674830489391
H         3.17557534419620   -1.89919061543348   -1.93209913545358
H         1.53123598910232   -2.16757564131790   -1.33177985898596
