37
 energy: -49.586516240282 gnorm: 0.140683290674 xtb: 6.4.1 (79825abcba525fcdf90b791dcacef51065a7a4e7)
C         2.54375858023186    0.50134807410432   -2.37548307438775
C         2.18969430587787    0.43941284674559   -0.88299622350035
C         2.64988082911227    1.79858168126655   -0.28332085795411
C         4.14549537193549    2.16064951992077   -0.40132886097147
C         4.96036389516485    1.06566892387186    0.30818463748955
C         4.43676458838100    0.86831415387756    1.72360619854614
O         3.32467336788432    1.73526138403244    2.12162498252538
C         2.32521750158824    1.91868389248385    1.18150082943050
O         1.18704156748004    2.15278444543982    1.58927363302882
C         3.85048330107551   -0.58659472608216    1.91178263357516
C         3.84566594200294   -0.95653288360405    3.52414961558669
C         4.64455805082503   -2.21809315451151    3.16887255877019
C         4.96911619350216   -1.77150505075385    1.77606658630971
C         2.52146537947956   -0.91934757982485    1.14252420853559
N         2.70249058523690   -0.79266040717090   -0.29653405695851
C         2.23399275657537   -1.93048479760738   -1.08356385341340
H         2.42131598654411    1.53712364044263   -2.70742689202328
H         2.08555945853057   -0.18768688270709   -3.09821252335718
H         3.58438391602286    0.20359289663254   -2.52570055749259
H         1.09758961799992    0.41669282588819   -0.82593526101327
H         1.96626548666516    2.53214419743162   -0.73218538148958
H         4.40026080442766    3.17238930115260   -0.05176969051400
H         4.43252214804217    2.10643054859065   -1.45292736814500
H         6.02772192085476    1.32178366367951    0.22136676185312
H         4.78798302566335    0.13710073675848   -0.24285621089000
H         5.18114278544896    1.03436317889167    2.51074312091324
H         2.86749293648353   -1.09029129861321    3.99383577726556
H         4.44820343982546   -0.23255900297893    4.09026440270237
H         4.17142257190886   -3.18723865822111    3.33886454123653
H         5.56252188107048   -2.28016344043925    3.76266890280183
H         4.71916529143715   -2.49286211714934    0.96651635824766
H         5.99087454676409   -1.44134998480718    1.59015030871364
H         1.72471574713101   -0.20986246549310    1.40834463704634
H         2.17809294084128   -1.94811290188267    1.29427139973967
H         2.49756044111194   -2.85722080370041   -0.55594560513107
H         2.64733477571813   -2.00888542316293   -2.09400158589665
H         1.14819438398503   -1.98553074670077   -1.18433353646382
