37
 energy: -49.580475020574 gnorm: 0.140361063330 xtb: 6.4.1 (79825abcba525fcdf90b791dcacef51065a7a4e7)
C         1.76494463556903    0.60582544759109   -2.31062706655353
C         2.00490678124584    0.46504746879448   -0.80088728280728
C         2.63723532838188    1.76074065760169   -0.21773902523600
C         4.11670906413289    1.87169112857342   -0.64286174789623
C         5.08282245511962    1.11310728985913    0.28319336955482
C         4.51558010926172    0.81777737238742    1.66433046419882
O         3.49053831643383    1.75044808166817    2.13991220438648
C         2.43697999276865    1.94321709284369    1.26284651286295
O         1.31613624021489    2.17283374440023    1.71838099080696
C         3.96995899525596   -0.64402826592277    1.91195480430455
C         3.53431083522126   -0.84359897700038    3.49530155896684
C         4.21546175479512   -2.21376959495145    3.37426185679015
C         4.89990057679527   -1.98060866243218    2.06206260438961
C         2.74188742129282   -0.93757572736976    0.97683891537045
N         2.90829139349118   -0.61852512374359   -0.43391439255610
C         3.01894719524808   -1.81758207426435   -1.26069621529088
H         1.20815515360885    1.51608116900281   -2.55440956177507
H         1.23290212645887   -0.27491345937597   -2.69570266413769
H         2.73172286019073    0.68431934596035   -2.81391932775501
H         1.02567217837396    0.27755556976439   -0.35098597288893
H         2.14686878241576    2.57631596439958   -0.76664779104284
H         4.47423794516106    2.90970764264464   -0.71640929805542
H         4.26710804549591    1.46144418989696   -1.64299228060265
H         6.00065353372330    1.72000753983501    0.32373294581671
H         5.30848555686404    0.15393043476857   -0.19078550730334
H         5.36936692518378    1.08928069200004    2.29567009491419
H         2.45940299645259   -0.79970948066149    3.69014941081952
H         4.17223742338461   -0.22520350253475    4.14207221021638
H         3.51884922863291   -3.04808795128678    3.27110502198058
H         4.90362756112531   -2.41777840577563    4.20125196576572
H         4.87498149991247   -2.64286697874884    1.16819684189653
H         5.95647995597207   -1.71473738721115    2.08464230717251
H         1.88559851786167   -0.38581083416236    1.39055914310520
H         2.54970315566872   -2.00668508648639    1.11598029387407
H         3.70063408001008   -2.60376758847868   -0.90869637035334
H         3.35269818492226   -1.54260696472694   -2.26617205384864
H         2.03194208543835   -2.24713153290717   -1.44359200317029
