37
 energy: -49.572673041695 gnorm: 0.150791116520 xtb: 6.4.1 (79825abcba525fcdf90b791dcacef51065a7a4e7)
C         2.47423005073764    0.59689348027011   -2.35846851347385
C         2.20029690364380    0.32962042257948   -0.87178084766819
C         2.55903965802623    1.68662155012181   -0.20202446707410
C         3.99176705777377    2.23517300304863   -0.37014741812588
C         4.96795199529305    1.26652557660123    0.31919119926933
C         4.49999843680351    0.89080046592027    1.71789539282282
O         3.35691294768372    1.72121311156294    2.10588213541151
C         2.26559636089157    1.85459128365603    1.26467609348955
O         1.23446345442779    2.39717413722457    1.66329236551025
C         3.99660018387387   -0.60327798963696    1.81896807771122
C         3.61189401902999   -1.07799928278640    3.35625321274864
C         4.51068905911059   -2.30820825174684    3.16987169030148
C         5.19776049006381   -1.70022149804966    1.98540035102882
C         2.74881521972152   -1.03629482399594    0.96790950540173
N         2.84188345091050   -0.91939143404303   -0.48032401799773
C         2.23984394276626   -2.07762102417871   -1.13576516231368
H         2.73295964319442    1.65692819944332   -2.44446446070723
H         1.66858438550325    0.34129030326222   -3.06036276518884
H         3.34911725238265    0.03364808886758   -2.69231209572228
H         1.11503910292810    0.27236014018553   -0.74767785304232
H         1.89094856033447    2.34430809645505   -0.77475995576086
H         4.07781783564645    3.18361504790369    0.18100353154767
H         4.37059570779177    2.36414489261983   -1.38554811351070
H         6.01708197980659    1.58718260994027    0.41348116389705
H         4.99770921960758    0.35540261588837   -0.28460471634294
H         5.16115623015444    1.16112258210636    2.54919078108665
H         2.53390495487841   -1.22812955592473    3.45978732980824
H         3.86812976982193   -0.32962128081538    4.11910914408414
H         3.90354587818778   -3.18355175748315    2.93081444312299
H         5.17985416554127   -2.45598307610643    4.02397067313960
H         5.25746874156958   -2.27210877567526    1.03272889371374
H         6.12939258251044   -1.21161605043633    2.26980098439236
H         1.93904218523414   -0.40821076984777    1.36617782300510
H         2.62740290958569   -2.08970735544569    1.24153519784030
H         2.17558684567148   -2.95266747975306   -0.47481638452943
H         2.98474855632680   -2.41890635866154   -1.86145389202910
H         1.30955440841266   -1.74586790704171   -1.60121541963738
