37
 energy: -49.578883569628 gnorm: 0.138361313802 xtb: 6.4.1 (79825abcba525fcdf90b791dcacef51065a7a4e7)
C         2.22495233639080    0.41544708389827   -2.44972887760149
C         2.15368470764706    0.43649033687860   -0.91636898681501
C         2.62571591067298    1.81330062949381   -0.36837079704269
C         4.15276093751767    2.02490384746569   -0.44075450739068
C         4.86490234206871    0.99973667308714    0.45829469674023
C         4.27470180725566    0.87029179773035    1.85523086641826
O         3.08217873086465    1.68674718107641    2.09617197455044
C         2.22816967269011    2.04006408284184    1.06552901228597
O         1.23454851843552    2.72711379743514    1.30470645570934
C         3.81316943324203   -0.63109130319105    2.02473776073454
C         3.86117893117418   -1.17605573478780    3.58592754811270
C         4.87896665294199   -2.24325047094061    3.16026541796823
C         5.01281573921942   -1.71166304717929    1.76592448743626
C         2.56525741043554   -0.93263319073588    1.11889027267196
N         2.84722197572070   -0.68059115034810   -0.28705397567985
C         2.68025110237093   -1.95341850571198   -0.98389090036041
H         1.77126226117407   -0.51609490853384   -2.80243943337252
H         3.18051602471293    0.67851554322756   -2.92380321513117
H         1.44638884785560    1.11719666557190   -2.75877732575599
H         1.09537900373074    0.32446256199399   -0.66357735716757
H         2.09770185907718    2.64508546549941   -0.85443497589066
H         4.46454260798246    3.05629468636816   -0.21773087368215
H         4.49920483091640    1.90171355866733   -1.46836545284240
H         5.94718969825857    1.14587554077111    0.59858996660143
H         4.78383649130387    0.03002881878802   -0.04039865105633
H         4.97416634227785    1.16274363258893    2.64673385708871
H         2.90329627598243   -1.52916276905026    3.97720119503371
H         4.28662898022302   -0.49684216311182    4.33781632640631
H         4.41082653229762   -3.22939742288472    3.17914606458393
H         5.83173574034620   -2.24979901869195    3.69998070651391
H         4.71249600944236   -2.28395617187084    0.86011452687608
H         5.94517699736631   -1.18895504558733    1.55370716396695
H         1.65587105779240   -0.43768313660190    1.48886391098185
H         2.37401975401482   -1.98935741625262    1.33348756454207
H         1.63059195916619   -2.14032334367364   -1.24841089346161
H         2.89150650695311   -2.83604700439465   -0.37207329807102
H         3.25084092184441   -1.86499543717176   -1.91057925732809
