37
 energy: -49.587869738036 gnorm: 0.138255205904 xtb: 6.4.1 (79825abcba525fcdf90b791dcacef51065a7a4e7)
C         2.05052692523052    0.47221928841967   -2.39272365056295
C         2.12480284329249    0.42929035907269   -0.85996317092553
C         2.86318467347240    1.70698806866701   -0.36904264227171
C         4.37356352304038    1.38978424646544   -0.37344021448938
C         5.06579382505710    1.63010859391428    0.97913659596505
C         4.21939666230619    0.91464687884438    2.02232866634489
O         2.98179271508642    1.69014651932861    2.13937608185799
C         2.29491422048514    2.03050237610454    0.98666402825500
O         1.27534945570114    2.71364766005567    1.08828288839299
C         3.83295458246900   -0.61419917894889    1.92647372868016
C         3.90238057648866   -1.44640181607482    3.35448756191563
C         5.16074154124888   -2.19566303023690    2.89500958117517
C         5.13911620857187   -1.52522471899047    1.55533342238796
C         2.52449540308218   -0.87696551077006    1.09722104042645
N         2.71011286914280   -0.80238206711914   -0.34489265972396
C         2.10818349337577   -1.96696429543514   -0.98908186235994
H         1.77736865525405    1.49889264455812   -2.65604150899425
H         1.28806646154205   -0.22653136766332   -2.76347293546909
H         3.05282939220739    0.32001753161187   -2.80058259462869
H         1.08226509544740    0.47602649793138   -0.53225050495702
H         2.70395322985394    2.57417881795489   -1.02444237314858
H         4.87865626017003    2.08058934091321   -1.06509336584764
H         4.50356386727494    0.33082670169257   -0.60342350969774
H         5.05398061203081    2.67350341348348    1.33066605535297
H         6.07991230384648    1.25360571882768    1.13853968726714
H         4.64118155118352    0.98243402846653    3.03166414873632
H         2.99406527954640   -2.04431089702294    3.46756666494628
H         4.04968520150939   -0.82121598132074    4.24618234012802
H         5.00804709847873   -3.27605936966477    2.93276692829232
H         6.05754493027270   -1.97181532043926    3.48215546924022
H         4.82519144970843   -2.08715636855061    0.64765114826916
H         6.03570193906864   -0.94490851469628    1.33871281242063
H         1.75427178025072   -0.14129469284210    1.36995464407144
H         2.13247954153289   -1.86921027853943    1.34433196364256
H         2.56110549387439   -2.85615748588065   -0.52985893142989
H         2.39068924980219   -2.08128905800278   -2.04032067588326
H         1.02961157706026   -2.09207116820454   -0.87430562683842
