37
 energy: -49.578947963313 gnorm: 0.128782595624 xtb: 6.4.1 (79825abcba525fcdf90b791dcacef51065a7a4e7)
C         2.81165324287897    0.48488686718175   -2.36484991839576
C         2.22817858161258    0.53903109665080   -0.94592772386407
C         2.68998195289344    1.89055526966857   -0.33042619688847
C         4.22012302127741    2.09161200790742   -0.34166575523087
C         4.94695764279325    1.05388807392956    0.53082667762460
C         4.22707810799965    0.76827728885906    1.84106452584134
O         3.05359449675214    1.59861390560778    2.12433223786444
C         2.20231655382032    1.95399010849133    1.09213902654512
O         1.02888320903651    2.27171579008148    1.28868602793859
C         3.73679288282057   -0.72884231013677    1.96001503396422
C         3.90604866153432   -1.30067297004102    3.50305323093151
C         5.18684457819155   -1.99993891454187    3.02705568807331
C         4.85677877316272   -1.85554446674356    1.57278810605182
C         2.38625477554247   -0.81524790870713    1.16167144542448
N         2.64271103120921   -0.68150899960797   -0.26523167988554
C         2.16263446501110   -1.85803492767144   -0.98555360930961
H         2.84452141297928    1.42726266720743   -2.92059935755695
H         2.14718596558847   -0.13943313567087   -2.97784358811629
H         3.79906365022959    0.01915380880299   -2.31754314797891
H         1.13525536747327    0.50225422942975   -0.97104952010146
H         2.12858864418837    2.64680808796883   -0.89597236065029
H         4.30257674075976    3.14141331020892   -0.02255287323796
H         4.58313090273420    2.00870772018439   -1.36759734375758
H         5.99062745181100    1.35255494517834    0.71504577298130
H         5.00999508296125    0.12724711178659   -0.04620265421843
H         4.85067969647501    0.96687354442123    2.72023247120543
H         3.02269375317694   -1.88246771188824    3.77967176585664
H         4.08205497185835   -0.54827389577183    4.28445771654270
H         5.27529873522560   -2.96831982965176    3.52345444482533
H         6.05403002742788   -1.45078681336457    3.40853409580454
H         4.31244715470512   -2.74445086322944    1.18323509919250
H         5.70931128125669   -1.64192655137485    0.92849542581507
H         1.76739799548081   -0.00426826900743    1.57175424442341
H         1.91128765312598   -1.74484130405168    1.49265826390256
H         2.31436912629283   -2.67447541646300   -0.26646384615329
H         2.79907306609326   -1.91027293572604   -1.87448543689290
H         1.09073139922424   -1.82243843440226   -1.19024703121335
