37
 energy: -49.583289059831 gnorm: 0.140281384588 xtb: 6.4.1 (79825abcba525fcdf90b791dcacef51065a7a4e7)
C         2.32060785251112    0.44869238262509   -2.38993384541692
C         2.05314890494559    0.44986843351796   -0.87825305211460
C         2.85780947593390    1.66176366374420   -0.32820448527818
C         4.37295692823851    1.37068126783237   -0.36668922073384
C         5.00253612948583    1.61001650866831    1.01633328891037
C         4.15888089697432    0.94459366498506    2.09428578400145
O         2.91537765909622    1.71106398747359    2.20824297949410
C         2.36078004834020    2.13302157226518    1.01209812182037
O         1.27739652618749    2.71197445803829    1.09938995798432
C         3.80354602292411   -0.58350366049039    1.90840524320148
C         3.95193947787365   -1.45878684241906    3.30427895969118
C         5.20984745382857   -2.17583772026357    2.79487709661909
C         5.02801252553194   -1.56111495248157    1.44072076868904
C         2.47604702480445   -0.86105131242017    1.11500415695880
N         2.59635728306580   -0.78857985869479   -0.33412723113602
C         2.04493468433801   -2.00534362893798   -0.92486364544451
H         2.44705144555381    1.48394510203799   -2.72200874664711
H         1.42556695241661    0.05322532018552   -2.88949471370569
H         3.23597284983832   -0.13572538974643   -2.51112509552183
H         1.00491818242131    0.53728122141896   -0.57819278943140
H         2.56454205773020    2.47719010865583   -1.00348012393441
H         4.92975428934362    1.99577877706191   -1.08079300790228
H         4.55980327281396    0.32798573076509   -0.62947798604559
H         5.12921829854474    2.66774519388976    1.29480573646607
H         5.99213343972591    1.14860698907528    1.07462964025273
H         4.56599016816169    1.07097517313123    3.10401121513879
H         3.04841449524224   -2.06270705850282    3.42361800537041
H         4.02876256088601   -0.90502633203702    4.25038839620980
H         5.17929185431780   -3.26059176039510    2.91476239289774
H         6.16524905085142   -1.79854649807998    3.17430235767920
H         4.75037636340346   -2.29642408476267    0.65303957082376
H         5.90372630096025   -1.08702876039200    0.99808659349974
H         1.86289363379880    0.01397794957334    1.37424595719991
H         1.97185052363878   -1.77421369218203    1.44848619480338
H         2.38659587593262   -2.80577640066780   -0.25459237341801
H         2.50582633581732   -2.13037422695926   -1.90971334651258
H         0.95510273929740   -1.94224934928061   -0.94555513460569
