37
 energy: -49.581470398091 gnorm: 0.150063517674 xtb: 6.4.1 (79825abcba525fcdf90b791dcacef51065a7a4e7)
C         2.48299994798381    0.51082235678241   -2.41334547190317
C         2.14577256838858    0.39275520165689   -0.92034436149978
C         2.58681654891597    1.67901029927467   -0.16552642844943
C         4.06542877480102    2.07618576745469   -0.36004994796247
C         5.06420719552901    1.24721511155804    0.46557220256286
C         4.39287970662342    0.90776408486861    1.78868056793747
O         3.31753480918658    1.83461434295936    2.15109647204385
C         2.24059866637740    1.89455371995441    1.28333781195161
O         1.21582382557561    2.41935119654223    1.72031643406121
C         3.81583210496391   -0.56109726290994    1.86188142359765
C         3.60553435290888   -1.11972118153463    3.40470964223122
C         4.65099414567015   -2.20493944354339    3.11264825789538
C         4.93228468109919   -1.74663885250346    1.71424788555366
C         2.56714437566661   -1.00953310069512    1.02018320945973
N         2.73864278885589   -0.83956679143098   -0.41557728653228
C         2.59989272982805   -2.09255841946689   -1.15335153771745
H         2.31085273237493    1.55399381773473   -2.69648598556591
H         1.81094171192557   -0.11436600040874   -3.01710926169470
H         3.53964412285542    0.25934903225442   -2.53329871447604
H         1.05511603217554    0.31908133667581   -0.88154645779705
H         2.02903110283097    2.48011844868940   -0.66953476364242
H         4.17847488129815    3.10992334693330   -0.00043678038957
H         4.33068210354371    2.18181422349983   -1.41345717254174
H         5.97022764241172    1.85744210627340    0.60390235114057
H         5.36782951139735    0.29801650083285    0.01564382726636
H         5.06769187973020    1.05915420287317    2.63895422084605
H         2.57929303513779   -1.48521356202956    3.49724567483964
H         3.81734091966762   -0.30562144891340    4.11185543658981
H         4.11968668654671   -3.15238519385267    3.22244988601128
H         5.43434615640094   -2.12142552919474    3.87323320730050
H         4.72172060441202   -2.46190237247738    0.88825520381324
H         5.96456821891293   -1.41959548250990    1.59181138864480
H         1.74272300962329   -0.40293410601392    1.42168872376078
H         2.35740805607539   -2.03512716951610    1.34183117884345
H         2.92903678099418   -3.00668508255123   -0.64078427910895
H         3.26294903741941   -1.94984770481539   -2.01240490175613
H         1.63625342758923   -2.23339408175443   -1.64701873225852
