37
 energy: -49.579887903911 gnorm: 0.152431857547 xtb: 6.4.1 (79825abcba525fcdf90b791dcacef51065a7a4e7)
C         2.24162315787172    0.47521808613192   -2.41876668729943
C         2.14908813893474    0.38656301627503   -0.88896539200439
C         2.63245496406010    1.71106232012436   -0.23262692711027
C         4.10149864507348    2.12195605627633   -0.46705993938343
C         4.93230668343537    1.09522478377577    0.32159936964412
C         4.30857159985583    0.80222051850086    1.67866472185479
O         3.16705526713023    1.56901142912719    2.18436768537497
C         2.21889118845621    1.82899055515328    1.20979856009156
O         1.12876676774578    2.31360071163203    1.51526199120528
C         3.81582276913126   -0.68562534764401    1.87718233490394
C         3.74498391895772   -0.98443115721624    3.50269815811401
C         5.00392051294034   -1.84320121979832    3.31945694827745
C         5.08957774098231   -1.70986084901339    1.82963461457339
C         2.49521266125122   -1.03175243114199    1.09939275981682
N         2.75643975758100   -0.80798782693042   -0.31531507805230
C         2.52822539811780   -1.96989554972950   -1.17055721391388
H         1.80992546718673    1.43846915223151   -2.70823930136749
H         1.74719183282275   -0.38184184767367   -2.89630139393107
H         3.29746785343918    0.49787743283110   -2.69948550500859
H         1.08133043584598    0.37647583526420   -0.65178078384346
H         1.98169178784724    2.43582728864789   -0.74070791267251
H         4.33846965476540    3.05321725062114    0.06895475738469
H         4.30180902302879    2.17210535660919   -1.53876151700111
H         5.93166696440435    1.55212703736411    0.39163236480577
H         5.08975357243896    0.15794188276786   -0.21905883137028
H         5.11332356537004    0.99324789842690    2.39778816815408
H         2.90856889721762   -1.66570875342160    3.68043276378668
H         3.84639014397040   -0.02359133589772    4.02631938348049
H         4.76966202371065   -2.86922009577236    3.60998352368336
H         5.86841497684922   -1.47298001645082    3.88042931427568
H         4.96031586367817   -2.62564214635284    1.21089474594522
H         5.99745199553952   -1.19123492603460    1.52247202640862
H         1.72081850987760   -0.34899317937513    1.47753705639416
H         2.37982051210530   -2.11247723066636    1.23358849072705
H         1.48980238017597   -2.08785090253812   -1.50886585096983
H         2.92555848777662   -2.78304605480772   -0.55501243749684
H         3.21850076500905   -1.97807740195028   -2.01648609298410
