37
 energy: -49.580670727190 gnorm: 0.131933995682 xtb: 6.4.1 (79825abcba525fcdf90b791dcacef51065a7a4e7)
C         1.96158489674479    0.50775535629492   -2.34117041120940
C         2.10298182858306    0.49230089723401   -0.81261470243653
C         2.94505878908137    1.73859397232257   -0.41716293650697
C         4.46890979686051    1.49448991711236   -0.40400345179862
C         5.08930764416455    1.56327076300232    1.00197602617778
C         4.21458552332905    0.90171512261241    2.05730944345491
O         2.94618512729402    1.63485375147446    2.07808163039011
C         2.36110346575802    2.11369840053516    0.91843664272977
O         1.31972488572550    2.76891881237561    0.97081073206132
C         3.83507283931771   -0.62778830761766    1.94557197032475
C         3.82112782788730   -1.44983599392671    3.38106764760264
C         5.02220360251854   -2.26358139981539    2.87984903557559
C         5.09425191941697   -1.59031715416382    1.54335672787991
C         2.51425500705117   -0.98829759203018    1.17469915891340
N         2.66857242492883   -0.72741660921390   -0.24932180030587
C         2.26620840997559   -1.92964853970369   -0.97478168904948
H         1.23657766009659    1.27520650634583   -2.62994913479940
H         1.66592774565836   -0.45577061505755   -2.77850097184993
H         2.95763600001049    0.75073430912106   -2.71928145003354
H         1.09598536596934    0.55348895150233   -0.38991036345899
H         2.53736834325882    2.50918847060368   -1.08566565077645
H         4.99721521133020    2.20305091565292   -1.05940342221931
H         4.52659147942651    0.46213761225516   -0.75343874319032
H         5.20752315783881    2.61469674660377    1.30679358619065
H         6.11732845246667    1.20790576049340    0.89022198353213
H         4.67037137983716    0.98677746068622    3.05042541989832
H         2.89554384025088   -1.99128368839973    3.59425184641215
H         3.92785129552846   -0.74402960636545    4.21660520368780
H         4.91717596330546   -3.34708435337727    2.79625474953674
H         5.95537966193588   -2.07656732905808    3.42143244423256
H         4.75683167564452   -2.19374218565227    0.67144569496185
H         6.03691548729172   -1.11387872070259    1.27512330317863
H         1.64570481134037   -0.49586473201334    1.63510118834022
H         2.18727232834056   -2.00234956179208    1.42782135534196
H         2.68076146569273   -2.75761059745500   -0.38375447797454
H         2.70739949406501   -1.95261587814611   -1.97618351937569
H         1.17731181108972   -1.95949429034113   -1.04932109420037
