37
 energy: -49.577180060031 gnorm: 0.145114315033 xtb: 6.4.1 (79825abcba525fcdf90b791dcacef51065a7a4e7)
C         1.73032588461363    0.48320378837513   -2.19983850163796
C         2.01327205335460    0.43368800438872   -0.69179203711071
C         2.87147203405715    1.68973996484752   -0.36845260435902
C         4.38965744610907    1.43707138391524   -0.48314129701310
C         5.07456314460434    1.43471967737357    0.89428429067631
C         4.14436315312420    0.93951234326908    1.99247415011849
O         3.01678416971939    1.87051097531699    2.08505100659695
C         2.33631194764872    2.22466724895598    0.93269683384652
O         1.44777598040535    3.07295895660798    1.01890114854041
C         3.75931795875760   -0.59098356823680    1.92023601612416
C         3.81832844989209   -1.37747853534176    3.37438460922170
C         4.83086721801546   -2.41411112338446    2.86827907011703
C         4.98629803352758   -1.62469048692558    1.60441843207416
C         2.46575974296774   -1.03188032539263    1.14493685808623
N         2.72442089666201   -0.76421130632528   -0.26259863393514
C         2.87991900949944   -1.98425078050191   -1.05055451293384
H         1.04209793380199    1.30768688624500   -2.41097784126473
H         1.10112740732172   -0.39103055541069   -2.41634961377865
H         2.60477626820254    0.46783114631966   -2.85499095100844
H         1.03665639568337    0.44977024096785   -0.19942223233590
H         2.57257003934574    2.49061046276847   -1.05851587133135
H         4.74742375191221    2.25687344993625   -1.12395505252727
H         4.54425447785616    0.46682120762122   -0.95842840272907
H         5.24814772436922    2.49444616653212    1.13766346458017
H         6.03577269464266    0.91349686592054    0.89254559338315
H         4.50503668242918    1.03647992232719    3.02289522735949
H         2.86531024910989   -1.74308534184693    3.76605640628706
H         4.33252070076592   -0.72114991499507    4.09028588427749
H         4.39994490561981   -3.38883313488008    2.63117061149084
H         5.79411425280656   -2.53237034192267    3.37550122550973
H         4.84497326015850   -2.21114938317886    0.66938030130481
H         5.91154370848865   -1.05067443432579    1.64895350685207
H         1.61087754977826   -0.41881204775987    1.46456683127696
H         2.23101699157736   -2.06007391960914    1.43990075266831
H         3.62491414864345   -2.68683464835543   -0.65300362167998
H         3.11158150740213   -1.67445154644212   -2.07443908497969
H         1.93552754544605   -2.53215743419982   -1.05866334320502
