37
 energy: -49.574424654813 gnorm: 0.138839850762 xtb: 6.4.1 (79825abcba525fcdf90b791dcacef51065a7a4e7)
C         1.70974346218198    0.47363562722123   -2.31443015209942
C         2.04014282701235    0.40667883356911   -0.81674276195345
C         2.72907935204042    1.71036382419317   -0.32227939490418
C         4.25036753219285    1.71336219065100   -0.58219308935982
C         5.13737440907733    1.33321933722737    0.61576884477108
C         4.40527093537127    0.90517458516591    1.87962227377882
O         3.24019881486047    1.75568686988409    2.13652519948311
C         2.34633839307510    1.99130554973384    1.10604636339603
O         1.32092797188412    2.59594344326685    1.42143923537706
C         3.92911503274983   -0.59980475909355    1.94449635631210
C         3.63952368643167   -1.17423366424387    3.46856098687509
C         4.58650927660954   -2.33473342879014    3.13323533691839
C         5.22258878541778   -1.59894572034629    1.99362720187364
C         2.71711637887010   -0.98534261927850    1.02189600603094
N         2.83114504273777   -0.74823390935777   -0.41005558655043
C         2.59956856297786   -1.92373824458185   -1.24558676074279
H         1.02241041956505    1.27838981948660   -2.59363238219880
H         1.25560538404457   -0.44558633026588   -2.70919978359554
H         2.49453425401414    0.71959194667611   -3.03396710147244
H         1.04623527747784    0.42972491581624   -0.36058328067182
H         2.15493408300515    2.40665181308005   -0.94874847019152
H         4.46971770635134    2.77743764089792   -0.75638657472433
H         4.43292062665618    1.06474516224606   -1.44076969816812
H         5.69562044060288    2.24612248842861    0.87529623156493
H         5.86277037498484    0.56625198217873    0.33087972493352
H         5.09426724988865    1.05230314100895    2.71920131545658
H         2.59742528031289   -1.39743177468594    3.71255349783673
H         4.05843232008288   -0.51022175302070    4.23750786575449
H         4.10984356213703   -3.29806856749869    2.94147332691184
H         5.30668572575947   -2.63070762028149    3.90320258967787
H         5.56377553839652   -1.95846656491864    0.99736448619395
H         6.14972449056908   -1.08904644801387    2.25435594382335
H         1.85776451085412   -0.43292339260374    1.42832799858160
H         2.45285964138021   -2.04156464249413    1.13959621365048
H         3.20538752453626   -2.79339241046091   -0.95684192656664
H         2.92391645117073   -1.83380885678572   -2.28707312381363
H         1.54851115386756   -2.21928501096388   -1.25413784519193
