37
 energy: -49.578861131207 gnorm: 0.146378754258 xtb: 6.4.1 (79825abcba525fcdf90b791dcacef51065a7a4e7)
C         1.97767573863799    0.42588485021350   -2.39640580578323
C         2.10348598947200    0.48016970561595   -0.86737362482253
C         2.63615597328643    1.84456691758166   -0.34449214661020
C         4.16660410338022    1.92227581890341   -0.52771800276790
C         4.97907911284411    0.99440118231909    0.39170335005522
C         4.38777139446591    0.87839566763332    1.78935181573176
O         3.21218645209582    1.70539501802737    2.07366754411161
C         2.32871741395457    2.13767187269670    1.09949690679482
O         1.30329186198426    2.71388570877449    1.46419709113887
C         3.91584346910679   -0.62050374650980    1.95208029668756
C         3.65989326260293   -1.19281612807432    3.48294697094249
C         4.51769080951825   -2.42047706152437    3.14676739467759
C         5.09632997552325   -1.75187623853758    1.93728938542498
C         2.64857379920418   -0.95217769668554    1.08444464544994
N         2.85148668159749   -0.64713892236105   -0.32462816387462
C         2.71228612236706   -1.90621959909387   -1.05187607376589
H         1.53035625484240    1.38203384655139   -2.68570545728838
H         1.35887541740039   -0.36187124460242   -2.84760416616045
H         3.00598789743575    0.44199995546846   -2.76578221736248
H         1.07335771911925    0.45560925069074   -0.50036226199271
H         2.12980557634532    2.61307808415379   -0.94442807694515
H         4.54623435255826    2.90142567102289   -0.19929621034771
H         4.34174839954572    1.92454571960823   -1.60498435926076
H         5.97106135695225    1.44946087254733    0.53757032250967
H         5.24227294038856    0.04373007879718   -0.08005242088597
H         5.06931844956698    1.11031869846844    2.61576637939910
H         2.60076219841751   -1.29764361966221    3.73308977792959
H         4.24498722951232   -0.59386516167337    4.19470420598162
H         3.90602904259908   -3.29415902024207    2.91321401427156
H         5.27011088952905   -2.69498415042913    3.89350315342765
H         5.25580689527649   -2.29020497742570    0.97657489958341
H         6.00406511101114   -1.24079635298554    2.25724507545634
H         1.80523715429391   -0.41542191075404    1.54217397605371
H         2.43852931389011   -2.02690913156697    1.07332710338723
H         3.49359859198485   -2.55765367240371   -0.63730033629845
H         2.98084306035818   -1.82110385929010   -2.10952212972365
H         1.69409602681982   -2.22832069791699   -0.82453819903562
