37
 energy: -49.577436301455 gnorm: 0.145534143378 xtb: 6.4.1 (79825abcba525fcdf90b791dcacef51065a7a4e7)
C         1.77134750069612    0.42099790593614   -2.31378467034298
C         1.99653329629956    0.37964080845742   -0.79579407932480
C         2.59792327525846    1.72189580086897   -0.29041921652076
C         4.10369355996318    1.76337115415489   -0.62630241299598
C         5.01342343828577    1.27862466137245    0.51554477180174
C         4.35061077630239    0.88362347486463    1.82748103426777
O         3.18997862479406    1.72669869240258    2.12567645290983
C         2.34735107027644    2.17487901861194    1.12292899264616
O         1.42058617430852    2.88531235312259    1.51397565368475
C         3.89459489408595   -0.62059852467009    1.98642014210967
C         3.64257338121860   -1.24309009326244    3.49823829909698
C         4.62054877809304   -2.38190252256301    3.17783998498613
C         5.10092214824742   -1.72254678058095    1.92118616294180
C         2.68170943422599   -1.05175937965614    1.08543134295569
N         2.85875835411474   -0.69258648928758   -0.31433899165143
C         2.96772101708781   -1.81636861836296   -1.24104894318445
H         1.24553806530817    1.35395631812980   -2.53988852395319
H         1.07741435748728   -0.37594412359779   -2.61444006299910
H         2.63807243414913    0.30101336461776   -2.96839609897461
H         1.06873742002190    0.38735133486134   -0.21648399153161
H         2.11903121248603    2.51711383637454   -0.87796831290154
H         4.46797358780613    2.74956794480880   -0.95100286161558
H         4.28313584916792    1.17000024615165   -1.52457570978760
H         5.83166166708707    2.01313386346398    0.57357658144945
H         5.49239896285362    0.36874227872275    0.14366232490669
H         5.05799212231995    1.17267297222569    2.61317673354259
H         2.57437374116164   -1.34498466569173    3.70772782766425
H         4.03342460156949   -0.48889849811200    4.19545127540853
H         4.00658171601150   -3.26521035384847    2.99126778633118
H         5.31898746607885   -2.57328914776609    3.99921625079245
H         5.07194932109740   -2.39365450642291    1.03406833608594
H         6.07327311697046   -1.23094596931320    1.94167035475412
H         1.68564380517405   -0.76529345543012    1.45235114629478
H         2.68405557223656   -2.14676398631908    1.10122211449493
H         3.84722984254640   -2.40957397396216   -0.95598719345048
H         3.02213501145704   -1.54011581642917   -2.29873802999663
H         2.08125341195560   -2.45363233746593   -1.22646016955144
