37
 energy: -49.585441665303 gnorm: 0.132176490741 xtb: 6.4.1 (79825abcba525fcdf90b791dcacef51065a7a4e7)
C         1.84651124242341    0.50872280410382   -2.31358652099822
C         1.97790336370771    0.38085151528259   -0.78941477724651
C         2.60410068821416    1.72573486080463   -0.32263027536578
C         4.10953038089244    1.99323909721005   -0.53240338853339
C         5.01033878401304    1.11161856588804    0.34946510545026
C         4.37384823694203    0.74442019787591    1.68234485759476
O         3.29029942188634    1.65673977991138    2.05698902257651
C         2.31656034021551    1.98968951389511    1.13104845881590
O         1.37252727784828    2.66017723368426    1.55030252147581
C         3.84603261700591   -0.73348843479678    1.86425873813521
C         3.56058622243834   -1.09979337368631    3.45200738486418
C         4.80297941673450   -1.99978934336679    3.40249870639564
C         5.10461671815842   -1.77365895462839    1.95247547173525
C         2.56383936441518   -1.13564126808830    1.04999517677958
N         2.71189795099557   -0.80298314994070   -0.35965926884437
C         2.94480138864309   -1.90476833686640   -1.28991504792835
H         1.25963469590535    1.38082886006166   -2.61857315986400
H         1.38359081141234   -0.41427916190358   -2.68885377544701
H         2.83044780535768    0.68187825512253   -2.75631730963778
H         0.99052055763858    0.29663596352950   -0.32632976654002
H         1.95731751895086    2.47302056948383   -0.80237902045630
H         4.29457954805161    3.04755431710753   -0.27766696576714
H         4.38421522146255    1.91594732340553   -1.58585376214483
H         5.99091249508247    1.60441486200131    0.43897631503901
H         5.27088872127048    0.17856753098752   -0.15761431591809
H         5.09257749700907    0.90696407730840    2.49367921400975
H         2.64173547671765   -1.62799751707385    3.72039613214649
H         3.51363687476893   -0.22936053937469    4.12119943701092
H         4.50676756286547   -3.01203776550949    3.68464960849097
H         5.56025485544018   -1.58152558342793    4.07383598972672
H         5.02567653660453   -2.71947198882782    1.37160613537504
H         6.06238398032053   -1.33740338332107    1.66977367742827
H         1.77299786382775   -0.48438509143169    1.44908753804754
H         2.39991524836356   -2.20036875750352    1.24690676641226
H         2.03907065916515   -2.31858597238820   -1.75369879579143
H         3.54515151160460   -2.58000590114341   -0.67216375889984
H         3.54579023699282   -1.42940371801443   -2.06772194787406
