37
 energy: -49.572362201826 gnorm: 0.154047798475 xtb: 6.4.1 (79825abcba525fcdf90b791dcacef51065a7a4e7)
C         2.61069705341222    0.36231958376026   -2.34519677034794
C         2.17442596321722    0.38749482833238   -0.87354864033440
C         2.58667180938087    1.75749268794691   -0.26372793661664
C         4.03867251729356    2.27634961801110   -0.32978316686577
C         4.88937990867829    1.18320076844063    0.33933950908198
C         4.35283845608950    0.79316914161069    1.70920152452724
O         3.22483655449092    1.63751053458321    2.11102568643348
C         2.22461053175924    1.89895175277648    1.19038153240351
O         1.09131495347282    2.16733755983660    1.59055195608681
C         3.82594859806958   -0.69154965873457    1.82707063543380
C         3.81057451746192   -1.08081063178076    3.43481572535572
C         5.19233039019349   -1.72854657928353    3.26997168870010
C         5.02694324520271   -1.80033633283627    1.78263153894546
C         2.46830292756058   -0.94000627941928    1.07617839624092
N         2.60327176682316   -0.91276005187411   -0.37321785626611
C         2.31601605069544   -2.09998476818914   -1.17417481796349
H         2.61568572747247    1.38994346015925   -2.72199139886224
H         1.91458603561863   -0.21409290597239   -2.96988193852390
H         3.65094755055557    0.02824372846364   -2.36511541136805
H         1.08255094704660    0.42461785434510   -0.81973760494016
H         1.93599854764408    2.53605475222707   -0.68490329736455
H         3.95258888611579    3.15226680034697    0.33057517366025
H         4.34325416833578    2.47596042371985   -1.35865100334054
H         5.88253867495185    1.65354440610949    0.40860564354574
H         4.89292722641775    0.34457205956786   -0.36229384432449
H         5.10738182170506    1.00353325191461    2.47579591831317
H         3.01641836206419   -1.81031604526019    3.61497313513543
H         3.74539868885119   -0.17126490597580    4.04812988204875
H         5.15409070096340   -2.67387401856637    3.81484894274352
H         6.08726649538990   -1.23342958736404    3.66119150249626
H         4.69977172249644   -2.76049956845532    1.32519477074806
H         5.82915720601842   -1.31867015786205    1.22405493347797
H         1.73598301582015   -0.18944291959948    1.40663533436087
H         2.09417633959520   -1.95205493891396    1.26346624389700
H         1.28165873710999   -2.05610270333972   -1.54141842727731
H         2.42683359333697   -2.97948441787696   -0.53216038855335
H         3.01736123147174   -2.19910788941187   -2.00509733551732
