37
 energy: -49.521694242996 gnorm: 0.158302808690 xtb: 6.4.1 (79825abcba525fcdf90b791dcacef51065a7a4e7)
C         0.91297976899590    0.75967604931467   -1.42526104294087
C         1.96746174821757    0.44780180635012   -0.35403899797404
C         2.85150528322657    1.72399618132289   -0.26175109401650
C         4.28647002669860    1.44394986743247   -0.75605067783323
C         5.17824137287376    0.66403384797827    0.22521251104090
C         4.48554653215304    0.65124437138922    1.58040016100918
O         3.44884168428546    1.58318642701522    2.03149917728436
C         2.65263052088652    2.26620078951000    1.12821162696031
O         1.66685659005390    2.95855610480489    1.38398503417520
C         4.05369242483017   -0.85728648962942    1.76406442126184
C         2.96247672077807   -1.10649241548947    2.98215694788241
C         4.00327993476046   -1.88141370410363    3.80204130950277
C         5.04776144776647   -1.71196827760879    2.74136510832971
C         3.44965440678554   -1.53834184963633    0.48341098565645
N         2.86327205306455   -0.68676467348716   -0.54161605367537
C         3.07947490941573   -1.18655173220001   -1.89698302950431
H         0.08393430280856    1.25196208361666   -0.90723789226787
H         0.46412741192630   -0.19571833723406   -1.72990278798371
H         1.36160495383866    1.43758883853314   -2.15553100522852
H         1.39694181279188    0.37270815466813    0.57619362967061
H         2.42943616270133    2.47059689854307   -0.94831375003565
H         4.86890300327243    2.19376901727293   -1.31215990873467
H         4.17988558588347    0.78819171046420   -1.62196318942037
H         6.19492356233662    1.08663593885026    0.23746159872572
H         5.48575868167534   -0.36554238803052    0.02271333100276
H         5.27231778348566    0.78257850954589    2.33206367853940
H         2.07819731420592   -1.71975611165168    2.78908598746231
H         2.73483841277732   -0.13984262729906    3.45273590399006
H         3.65722448492210   -2.91473718449844    3.86901646109918
H         4.16145772793785   -1.44823636222823    4.79523896525855
H         5.46215095417129   -2.53658376367631    2.11967895572677
H         5.94250017371213   -1.26800554447661    3.17713689306492
H         2.62977943505657   -2.16729331065932    0.85899675950695
H         4.27572717392720   -2.08047130558414    0.01119350491081
H         2.66344947360443   -2.18584029874275   -2.08415607703845
H         4.16608573450553   -1.20429425086661   -2.02715526131778
H         2.60911076552374   -0.51573108411735   -2.61871699202782
