37
 energy: -49.577458878673 gnorm: 0.153461083851 xtb: 6.4.1 (79825abcba525fcdf90b791dcacef51065a7a4e7)
C         2.11967701546415    0.58683078715840   -2.36614945989426
C         2.06206081585970    0.48714830188718   -0.83531364814181
C         2.88778731950090    1.71634492153512   -0.35994687836445
C         4.38138379740840    1.33416485426407   -0.43058566155759
C         5.02011930427729    1.57234637822963    0.94843178673112
C         4.22676770185258    0.89430036075396    2.05629917377533
O         2.96101638556530    1.61393229116694    2.21990482883071
C         2.39336553126375    2.02797913731445    1.02712363394506
O         1.32812230149550    2.63139852342122    1.16004502670257
C         3.86319253585758   -0.63183635593626    1.87024612768510
C         3.81029161780020   -1.39143764736965    3.33885502479079
C         5.12763783198483   -2.11699802450317    3.03202316468416
C         5.05432705916815   -1.71651575446319    1.59017474279320
C         2.52743313710970   -0.78114992226406    1.05647473341753
N         2.69380631405859   -0.74860621185322   -0.38954370693975
C         2.26106083870812   -1.98586898797956   -1.03410761887046
H         1.73358934248212    1.55281282444933   -2.70648007589881
H         1.37660408170236   -0.10857433157623   -2.78004293681222
H         3.09138072327573    0.42575154777755   -2.83940405427651
H         1.01308295406401    0.60260864021478   -0.54759995074916
H         2.58992854852969    2.59718643498019   -0.94502947448266
H         4.80256307042249    2.07575910762366   -1.12582692962895
H         4.43510389819996    0.28075621190350   -0.71099226830752
H         4.99180964775540    2.64232563956573    1.20674981751752
H         6.06176532069960    1.25134090301792    1.03520222604897
H         4.72803250990930    0.94181780292150    3.02981413812960
H         2.95259726518658   -2.06854376654177    3.37359022609820
H         3.67309254385674   -0.67237416838960    4.15848890204048
H         5.09905349403390   -3.19650547807006    3.19278402133927
H         6.03742394215035   -1.76324793222559    3.52826354314720
H         4.52323888659794   -2.34384452211531    0.84010340418968
H         5.95962075305670   -1.33004750961503    1.12258199692457
H         1.77514291812732   -0.04432435724738    1.37268211988444
H         2.02324016996635   -1.70829428949017    1.34884897925407
H         2.88898247517928   -2.76894716507627   -0.58779880803211
H         2.65171491172409   -2.06951709213625   -2.05311452977334
H         1.19597096058200   -2.21424704485521   -1.10873806373875
