37
 energy: -49.580235836983 gnorm: 0.153273409479 xtb: 6.4.1 (79825abcba525fcdf90b791dcacef51065a7a4e7)
C         2.38479946448632    0.40532837744554   -2.42233701190464
C         2.09929546176307    0.36342645732900   -0.91454188377189
C         2.59890329073602    1.69118708321071   -0.27723052123575
C         4.06654520415847    2.15021850778909   -0.40837624532226
C         4.88736882338839    1.09824244544018    0.35712852529901
C         4.40239944461970    0.86653397661570    1.78108049278484
O         3.27261029149753    1.72701599205133    2.14151146896743
C         2.29706662357043    1.92288664130225    1.17904667785426
O         1.19483508913458    2.32730122762521    1.55061181335251
C         3.83876878695447   -0.59896896890406    1.95577318021446
C         3.65735164354309   -1.19311478762065    3.48896699298419
C         5.01066950760824   -1.89622252029408    3.31531510489780
C         5.15913130822475   -1.55908448300822    1.86308081421638
C         2.61484760089199   -0.95149979684313    1.03571311294278
N         2.77359658454207   -0.82466635233420   -0.40595968761373
C         2.29533716990578   -2.01219380338953   -1.10923554570991
H         2.11301948064898    1.34114047488214   -2.92073570822014
H         1.70766011004735   -0.29863919587966   -2.92529368386021
H         3.40709747391467    0.18331674438977   -2.73815678566434
H         1.02091659103011    0.21463421851351   -0.80765569200609
H         1.95518473354438    2.40632060687420   -0.80745096164972
H         4.11719153649828    3.15012284757191    0.04806726985132
H         4.50620434794720    2.25207407498530   -1.40211099331526
H         5.93514238418064    1.42201107599414    0.45576777048818
H         4.89325970590318    0.19806908470937   -0.26355921038693
H         5.11837839004640    1.08754269646603    2.58094610312810
H         2.79461131057898   -1.86383297506041    3.52265768736140
H         3.64641837807177   -0.38752189123093    4.23634648789003
H         5.11857795741755   -2.97569803164817    3.43813956897691
H         5.81519201465238   -1.41270582020053    3.87928278810632
H         4.98031439197850   -2.45398658069072    1.22638796243392
H         6.02389547167276   -1.08075975218243    1.40379250143877
H         1.70687109670195   -0.42362344984289    1.36092815101609
H         2.35845846002566   -1.96909100844002    1.34886269129538
H         1.22883471192698   -2.25921669735395   -1.01845693754032
H         2.74223934591526   -2.93734262085533   -0.73192824012744
H         2.69086544897469   -1.95563386494709   -2.12535613155104
