37
 energy: -49.582722596215 gnorm: 0.132259553961 xtb: 6.4.1 (79825abcba525fcdf90b791dcacef51065a7a4e7)
C         1.89762456790801    0.47927882702304   -2.33518641995731
C         2.00200354402467    0.47662686712198   -0.80358189295690
C         2.83985069924513    1.71541171308070   -0.37679588319567
C         4.35294987020695    1.41263975376001   -0.40403324710503
C         4.97825350491338    1.60346829415443    0.98844024532591
C         4.11553596960788    0.92886968307972    2.04539741551702
O         2.79185943515725    1.55252541767346    2.12087761020002
C         2.34159949639223    2.17252541634788    0.96794429453935
O         1.54346250887270    3.09427173989837    1.14082352603002
C         3.84754896306442   -0.62104959964723    1.89765078937558
C         3.85835471378122   -1.35026325488969    3.38248592675760
C         4.92240652882550   -2.34366808226832    2.89573621315430
C         5.15641490439785   -1.56582674007346    1.63681194423145
C         2.53818237003567   -0.97860291735802    1.10614193061081
N         2.50159754925976   -0.81184295903933   -0.33973531990269
C         2.64272038932561   -2.02298485703278   -1.14395544769942
H         1.73476351035906    1.44604094713204   -2.82186616470345
H         1.09467902088232   -0.19149921883403   -2.67043068552548
H         2.87081930525492    0.21888118120104   -2.75851795323381
H         0.96560742090071    0.58480067593160   -0.47094653040884
H         2.58732060668706    2.55334235721802   -1.04089228332427
H         4.83136406630481    2.03105998030297   -1.17823651363088
H         4.52812855465225    0.36048348911025   -0.63525414655757
H         4.95757458106747    2.67879917587104    1.22428158425796
H         6.00562093438409    1.22914755851046    0.98800450881867
H         4.46553396786274    1.02712852844963    3.07937144576279
H         2.91993358864618   -1.79080579091012    3.72977095717166
H         4.23175975452025   -0.58134187349335    4.07314079839334
H         4.42486504280689   -3.29560852271145    2.70013629533997
H         5.72215071281259   -2.55965510369119    3.61188092861337
H         5.23306484799352   -2.14972443558623    0.69267673872086
H         6.09284602589770   -1.03431080822178    1.80457641810804
H         1.72291513709874   -0.38593730360919    1.54537578808833
H         2.37464577017228   -2.02369053615019    1.38958072945098
H         3.19876469820790   -2.81819264211327   -0.62903036018978
H         3.17400083838644   -1.83204964757335   -2.08164809419890
H         1.68153221638891   -2.50246021846527   -1.33982107662759
