37
 energy: -49.582846831528 gnorm: 0.137029974398 xtb: 6.4.1 (79825abcba525fcdf90b791dcacef51065a7a4e7)
C         2.42860956297286    0.43728036581597   -2.39653069350379
C         2.12849403515616    0.42078670974047   -0.89108288935319
C         2.64147648929912    1.77059327192731   -0.31350750402951
C         4.14663125843085    2.09443649192436   -0.42082265497528
C         4.95996124482443    1.06652468838907    0.38434456817602
C         4.41063338246715    0.90268304527103    1.79428007288703
O         3.30223986110956    1.81015930042764    2.10203640826581
C         2.31141798589479    1.94471930248641    1.14466768546276
O         1.27043999043152    2.53476551526120    1.43576295306148
C         3.82438845277935   -0.54810680146885    2.01204514512615
C         3.78671434589774   -1.19794340981111    3.53286654793407
C         4.69192463893391   -2.32818209290048    3.02380904218040
C         4.88947321789140   -1.73809739488753    1.66092166376683
C         2.52387989821835   -0.82363041462884    1.17446777946767
N         2.70077108309131   -0.76711650902816   -0.26956273346071
C         2.44518075958127   -2.03202194156205   -0.95384211794822
H         1.92315526135083    1.30479512499141   -2.83235634564628
H         2.00937338245174   -0.36433874520966   -3.01998982272483
H         3.48542558680029    0.49112737729791   -2.66922999419689
H         1.05250063055641    0.48865416883469   -0.70642916881619
H         2.08759878543780    2.51636634067885   -0.89999303360411
H         4.42427453353548    3.02560371725857    0.09546819186779
H         4.31483020007654    2.25727897781969   -1.48683152651978
H         5.99852584548139    1.42511463628894    0.45633121172026
H         5.06883384984029    0.07643326329277   -0.06672723430891
H         5.13565812077135    1.15785935752907    2.57561219040210
H         2.78489202686117   -1.50879825459682    3.84115234486173
H         4.25783489404759   -0.57036420364396    4.30219438898245
H         4.13135001897983   -3.26015902671567    2.92803559755017
H         5.58756843152036   -2.51506799427308    3.62547362172146
H         4.52401306078983   -2.37776561555177    0.82697533300792
H         5.90968256090128   -1.38508118549816    1.51222796806645
H         1.77458985272424   -0.09651633375795    1.51900970507256
H         2.29743744750939   -1.84707070746563    1.49161713342394
H         2.68872289678014   -2.76423618072479   -0.17202493901275
H         3.18341813425050   -2.09100582610665   -1.75976343819580
H         1.44616606703201   -2.13561238052751   -1.38207260606417
