37
 energy: -49.572936971971 gnorm: 0.151555085930 xtb: 6.4.1 (79825abcba525fcdf90b791dcacef51065a7a4e7)
C         1.69824176462274    0.48658515079138   -2.26787927453872
C         1.96416729922699    0.46464743222608   -0.75608669636649
C         2.69427524019810    1.78732875186418   -0.38706286461403
C         4.21929160461930    1.95438378456001   -0.55528760667272
C         4.95699934939141    0.97318705357266    0.37177380817832
C         4.34000877003138    0.70869786814320    1.73775016954137
O         3.23389028736517    1.61055717260203    2.06928451639296
C         2.42873032356611    2.10851594401133    1.05926285274226
O         1.56081998357677    2.90735600075548    1.41297515735944
C         3.79130288187279   -0.75930335184801    1.93722500099297
C         3.60055099268147   -1.06784220547794    3.55123312128781
C         4.61425946355961   -2.21263551390000    3.41771112834113
C         4.99094746193214   -1.86811044673829    2.00913169180885
C         2.61165724929153   -1.24884016800010    1.02204115958041
N         2.57654003179733   -0.79809652243772   -0.36190440741292
C         3.21278985666790   -1.60903083087720   -1.39685470079231
H         1.05898536666371    1.34461835673480   -2.49840081831639
H         1.05624933769496   -0.37563605398859   -2.49475761758154
H         2.63870764134966    0.47701988288329   -2.82425770707556
H         0.99670583635812    0.56109260584976   -0.25490665095034
H         2.17585845157130    2.60800241942455   -0.90151599744299
H         4.60925156582117    2.89730019671445   -0.14351789038969
H         4.38553288903395    1.85884470709494   -1.62972680933888
H         5.95558564654720    1.36264319606959    0.62383449411520
H         4.99350811406632   -0.01641602545646   -0.09185634030942
H         5.00280544430224    0.77189447236975    2.60836056919797
H         2.56207180263696   -1.33735935926392    3.76156692994862
H         3.90352324047720   -0.20138504656445    4.15549744709562
H         4.08087164015530   -3.15552950337508    3.55352651056019
H         5.35669236301522   -2.22304675394305    4.22256478422262
H         4.72065392892624   -2.65468108016248    1.26990838960786
H         5.95105264829675   -1.36973550554317    1.87730675349393
H         1.70275830750173   -0.83333566900601    1.48040598906290
H         2.65988180744849   -2.34287639206878    1.01503779244687
H         3.79332597193714   -2.44857425131826   -0.99085813237832
H         3.87114928512130   -0.98070393492067   -2.00492612691811
H         2.35447353242165   -1.94331551965387   -1.98310509130436
