37
 energy: -49.571618673453 gnorm: 0.141744061955 xtb: 6.4.1 (79825abcba525fcdf90b791dcacef51065a7a4e7)
C         2.06621126436392    0.45063259427791   -2.36740318182263
C         2.00506421700395    0.31805582245712   -0.83920197528176
C         2.47560976492124    1.68627282144135   -0.26885888984201
C         3.96615933615533    2.00164367645105   -0.51520226095775
C         4.91917246020817    1.17771608209465    0.36758417218072
C         4.34072140118880    0.81802342774879    1.72866420183612
O         3.18946905702524    1.64066058367806    2.10899227580640
C         2.18998076772593    1.91466551855603    1.19120488374991
O         1.29941830794736    2.69932692212998    1.51942913736667
C         3.90878424502128   -0.68220487486925    1.97082373852794
C         3.70456129395440   -1.09497857532277    3.55969615520518
C         4.83022583612220   -2.11505881968695    3.33992278284673
C         5.03699813391446   -1.86213734806609    1.87774517997434
C         2.67134238933036   -0.91623638281962    1.03128208790900
N         2.95697909530220   -0.68471156170404   -0.37744655614996
C         2.89546028851730   -1.85906420818506   -1.24385394730121
H         1.98148224022421    1.50980643285777   -2.63004682792695
H         1.23957602637301   -0.08607859460512   -2.85286044416940
H         2.97616106505791    0.05936284794674   -2.82894827238555
H         0.96501555654657    0.10276398125267   -0.57764317337556
H         1.94929002847271    2.50353268071423   -0.78071542970932
H         4.10741303851623    3.08201139846927   -0.36168548756924
H         4.24621492569178    1.72713575484751   -1.53372950529686
H         5.83996473357403    1.75168852796752    0.55488732883230
H         5.31165697799436    0.29797631081820   -0.14972992163612
H         5.07750704690335    1.11052310717802    2.48553046704871
H         2.74892140201017   -1.56850917919957    3.80019561616346
H         3.82851502273269   -0.23652508141854    4.23450622608982
H         4.45570045038836   -3.11699944346827    3.55865363160305
H         5.69464025213066   -2.26676654748662    3.99480971334847
H         4.70280427576055   -2.66927835612418    1.18851307508147
H         6.04169180488602   -1.52262115551191    1.62699283793335
H         1.81481095825953   -0.31779912466539    1.37343169928906
H         2.32482902030746   -1.92996256942227    1.25838918501825
H         3.49037852403527   -2.69434795603125   -0.85007492315628
H         3.40926965665698   -1.62381468399133   -2.18121209324798
H         1.85396935973040   -2.15819897465667   -1.37786041241187
