37
 energy: -49.578272204691 gnorm: 0.138392548050 xtb: 6.4.1 (79825abcba525fcdf90b791dcacef51065a7a4e7)
C         1.86095199133396    0.71249488422493   -2.36099411860573
C         2.06016466132832    0.55927575076250   -0.84654613983099
C         2.86277184802138    1.75242012554692   -0.25413556203745
C         4.35944400451737    1.43180024811742   -0.45176444938202
C         5.16900795257391    1.33794779929307    0.85291961785040
C         4.32219393791636    0.72576390665788    1.95956327843125
O         3.13287854084206    1.53162566575383    2.24745042226225
C         2.43439287356091    2.03110247512820    1.16161898381946
O         1.41878180650882    2.69881603268361    1.35965666578235
C         3.78990962812482   -0.75503943082052    1.81888353660106
C         3.52225797852752   -1.39983311410346    3.31861965277968
C         4.94780339683560   -1.96823763381901    3.34547601594468
C         5.07693606234968   -1.76251751242750    1.86706762187469
C         2.53676978314109   -0.97434175632990    0.89675633194156
N         2.73393800138961   -0.69081887319279   -0.51761557795695
C         2.53423959245991   -1.81930739251215   -1.42325604166204
H         1.18937996823443    1.56667238880776   -2.49283386411201
H         1.36652475997252   -0.17449400786083   -2.78033393897662
H         2.79062852772697    0.74307743977984   -2.93448410623372
H         1.00867534370841    0.57591625214121   -0.54561740587223
H         2.61768411461216    2.63122795134226   -0.86614213727839
H         4.79457127552803    2.27546672875564   -1.00818654661684
H         4.48693866641497    0.48718886451409   -0.98340146592642
H         5.39653596369815    2.36351261104268    1.18281820217647
H         6.02370319111959    0.69338836427510    0.63012099988997
H         4.88346567311756    0.66929426180818    2.89926584660938
H         2.71976048038479   -2.12316031282099    3.15094625906540
H         3.23059474390595   -0.68205956126011    4.09798429566071
H         5.06592786580039   -2.99727210371142    3.69063124235631
H         5.46642711768329   -1.28493817132805    4.02609021689297
H         4.82390564135196   -2.69538920092438    1.31577001189840
H         5.96660220483489   -1.16702491202332    1.66349926199163
H         1.80359115852345   -0.29042179545066    1.34791283412621
H         2.08310437268838   -1.96851831403899    0.96810460470324
H         2.96438421758565   -2.72000143683806   -0.96454654549925
H         3.03443135623586   -1.64933274628040   -2.38184850426720
H         1.47200158233479   -1.94236780240074   -1.64382175708158
