37
 energy: -49.579604562836 gnorm: 0.145867014651 xtb: 6.4.1 (79825abcba525fcdf90b791dcacef51065a7a4e7)
C         2.28521539582035    0.58832721771408   -2.43536687782013
C         2.01306765635155    0.46385466855474   -0.92965885062794
C         2.58297198391896    1.79613352325150   -0.36488970084442
C         4.10485851140931    2.02842807186860   -0.47343684177045
C         4.95107410342964    1.02086054429944    0.32351323462948
C         4.33403844946966    0.70480512834935    1.67846682941950
O         3.29373153701781    1.67508217592603    2.02930477619397
C         2.28177305349837    1.88100376751812    1.10739070616317
O         1.15637372046327    2.13400665003806    1.53865865352456
C         3.69749714726139   -0.71340907229953    1.96021056650700
C         3.78519059171705   -1.10391201507823    3.56533423194839
C         5.09152325888462   -1.88923279094121    3.38436204490807
C         4.97299892751516   -1.73473173850237    1.89884233963205
C         2.42821944497877   -0.98737260693464    1.07553568905802
N         2.72568998413905   -0.64551123978146   -0.30806486909798
C         2.62725243918532   -1.87826721676420   -1.08535065778581
H         1.76510221184654    1.41915517351351   -2.92241624803654
H         1.93627240931422   -0.30806876593580   -2.96618370006147
H         3.36915317924590    0.67055454857061   -2.54691091585200
H         0.93209405824418    0.49281811594836   -0.76497132030656
H         2.14357491665992    2.64395017858412   -0.90808430277606
H         4.24188072859652    3.00712660658722    0.01039010641343
H         4.45320504705663    2.06167036028411   -1.50723232912185
H         5.92794851466941    1.49283655119006    0.51150334938738
H         5.08775905948763    0.08604998738866   -0.22698333954578
H         5.09902127168239    0.85767124530525    2.44832975099711
H         2.91681514728644   -1.72109100840313    3.81096200093258
H         3.80927818571573   -0.22116055142281    4.21943299573779
H         5.12392728279626   -2.89714307732913    3.80276889269913
H         6.00664780779903   -1.46313900876977    3.80873870967979
H         4.54159584652163   -2.62935710361636    1.39710547901300
H         5.79457408746828   -1.37808164761522    1.27805870286931
H         1.56181176546681   -0.41557389548854    1.43778359362362
H         2.04712113729554   -1.98985198294347    1.29709625169178
H         1.62250768545019   -2.32109101829678   -1.05243224741831
H         3.23997358765376   -2.68767881390520   -0.67619500045914
H         2.96801166329231   -1.77783113111133   -2.11779360108327
