37
 energy: -49.568646130232 gnorm: 0.151338229619 xtb: 6.4.1 (79825abcba525fcdf90b791dcacef51065a7a4e7)
C         2.04489944795865    0.61403306766677   -2.35913558844160
C         2.02800812058059    0.45753794546560   -0.83206701278501
C         2.68923597183080    1.77041557248505   -0.32427557544131
C         4.21006831946757    2.01271609889477   -0.42547481536510
C         4.96994948749260    0.91736248299577    0.34210819465517
C         4.37479607081581    0.68144212033171    1.72292582183517
O         3.23660870314573    1.54385928504215    2.05084268683935
C         2.38689078464253    2.10345730124995    1.11211015282867
O         1.46696094049922    2.78323467619362    1.56835347512362
C         3.71892261164898   -0.74291021656169    1.91514024882939
C         3.55717396566480   -1.21145773275859    3.49340047063483
C         4.87505768597625   -1.97366208573754    3.29792226157673
C         4.81757855539940   -1.94860485367399    1.80100687161965
C         2.44507892406621   -0.96704652960454    1.02303218734010
N         2.71158274952561   -0.75244855308999   -0.39211157587823
C         2.90323924291343   -1.95179907797907   -1.20351563304822
H         1.64170048640779    1.59455175625012   -2.63120838810877
H         1.53364559394462   -0.25924067110922   -2.78699764813975
H         3.11518188831531    0.48752327363754   -2.53973265977821
H         1.01104068209212    0.41206262630914   -0.43184954198904
H         2.22980406895487    2.63021299492186   -0.83082663704375
H         4.44362354136784    2.96436722905931    0.07505142496224
H         4.43715818007824    2.13748641902180   -1.48568519154293
H         5.96651792058487    1.38068464994327    0.40970399829494
H         4.96479501035722   -0.05383796444599   -0.16022951519527
H         5.08288756439499    0.80902899171466    2.54971704968858
H         2.67863790288560   -1.82036356873351    3.72302386472609
H         3.52700842212537   -0.41499445728518    4.24997951827917
H         5.04496822884846   -2.86501298710440    3.90506428858250
H         5.64502057136845   -1.27378584843098    3.63914773017042
H         4.46928302781127   -2.91821305454166    1.38058660373417
H         5.78093844661366   -1.67780614557944    1.36954060227685
H         1.68736373481606   -0.20743297660070    1.26322907449542
H         2.04536519458826   -1.95572915552954    1.27208143167229
H         3.65400477688083   -2.54123176194173   -0.65981646290355
H         3.17498095212474   -1.59199312544943   -2.20085149080671
H         1.89463560018030   -2.36587111313376   -1.26187430222446
