37
 energy: -49.580041921679 gnorm: 0.141369637292 xtb: 6.4.1 (79825abcba525fcdf90b791dcacef51065a7a4e7)
C         2.05299697532107    0.37162605288643   -2.38352464427531
C         2.00872574964168    0.45860545650765   -0.85147077042736
C         2.59206741612712    1.81626637842332   -0.36650545316744
C         4.12197887731941    1.93024926389236   -0.53461456319325
C         4.91268085506263    0.94586133086790    0.34411940089310
C         4.32345280802462    0.83381028095898    1.74296828182263
O         3.20519966536236    1.72131674135820    2.07252177251117
C         2.34847179231098    2.16139341827790    1.07816815867538
O         1.32359949926267    2.71812061268169    1.47341211246420
C         3.80435837010942   -0.63046353454704    2.02991618652351
C         3.70787849543688   -1.25859730376544    3.55724860072099
C         4.76269025148759   -2.29100503773394    3.13595163495783
C         5.03730616732722   -1.67882489184597    1.79635879873007
C         2.49781638233068   -0.88929886014498    1.19641519985207
N         2.57330440742300   -0.74332167518489   -0.25020175299140
C         2.98358794905240   -1.91349486649721   -1.02215544879006
H         1.28247092119821   -0.32399816598762   -2.73052096535755
H         3.00871717295200    0.16128188667300   -2.88293197889619
H         1.76964384025351    1.36247806927364   -2.74690846879510
H         0.96443776330919    0.48179263153106   -0.52683290949542
H         2.14855326848735    2.64926248655714   -0.92894293655361
H         4.37095933457854    2.96875779578605   -0.26961797596191
H         4.41463567119546    1.82179295624581   -1.58045045266726
H         5.90873604208274    1.39195776682540    0.48991824177007
H         4.93026520396582   -0.05299192928090   -0.10038369919553
H         5.06080523529034    1.05372887568583    2.52348280199180
H         2.74571056034273   -1.69978044387713    3.83094392326763
H         3.94836418388798   -0.49309929579768    4.30815138813108
H         4.40721889999587   -3.32330140803614    3.13728764827409
H         5.68181482768483   -2.21641924827804    3.72650339825066
H         4.97685117786487   -2.33771291906493    0.90169975733343
H         5.97928834388949   -1.13259038172221    1.75329137686837
H         1.74372576575274   -0.16924888344503    1.54529191533272
H         2.10090700983431   -1.88452888680340    1.42284411820784
H         2.22507624063818   -2.54766214992064   -1.50088333132744
H         3.58631761473756   -2.57559288188644   -0.39261128886279
H         3.55762858184265   -1.42922179346692   -1.81468281653195
