37
 energy: -49.577946918958 gnorm: 0.146893347872 xtb: 6.4.1 (79825abcba525fcdf90b791dcacef51065a7a4e7)
C         2.08622058213563    0.63194947659719   -2.41334867402770
C         2.09593273687671    0.47526795392800   -0.88623667474945
C         2.87884299801093    1.67499849693660   -0.28091009476838
C         4.38978647256606    1.43361683342750   -0.48256953823086
C         5.10413203798772    1.56139528138861    0.87381745003788
C         4.25845899398462    0.96309488569142    1.98889458193685
O         2.99398311874555    1.66790165427087    2.21497304833490
C         2.28556835393172    1.98210461000942    1.06788357678186
O         1.16501161434433    2.47027907843717    1.21809822513375
C         3.84995242280949   -0.56090011015072    1.90853597000546
C         3.73104685593398   -1.23647662268908    3.41388062864585
C         4.72162911276254   -2.30938648872204    2.94102132932020
C         5.10172921422875   -1.58866025058941    1.68373655815955
C         2.57661519535570   -0.92974201474087    1.06512650425170
N         2.77933472226960   -0.69897955402457   -0.35802560587260
C         2.46065551426799   -1.94465014333908   -1.05106153927440
H         1.37069598750472    1.38875855458109   -2.74991142246859
H         1.73424269979568   -0.33064079490322   -2.80905691440325
H         3.08600232277002    0.92141220409452   -2.74617344315057
H         1.07871067914461    0.57182131306618   -0.49585027483387
H         2.49075613843647    2.51766296607173   -0.86932188504306
H         4.78376824084740    2.22019704401217   -1.14346616866949
H         4.54067835723030    0.44502859513927   -0.91972900720643
H         5.25762755783628    2.62651996547967    1.10691352871846
H         6.11109852187270    1.13611195838210    0.84638342891678
H         4.82556458657820    1.23566125782197    2.88631004382404
H         2.71527576473355   -1.49067577262602    3.72838135888857
H         4.21291308902465   -0.49369341598077    4.06484422779970
H         4.18587877371939   -3.24274973160782    2.75716787360518
H         5.54809360247496   -2.49991625318767    3.63366789600585
H         4.99422117774169   -2.30782987618886    0.84145388648739
H         6.11001156577145   -1.19795916219967    1.54854519646470
H         1.70400957619616   -0.46970141577503    1.55067945600263
H         2.54049505363245   -2.01159499058259    1.23119699278479
H         2.98354037193320   -2.87455793758656   -0.78923816078755
H         2.69885175427897   -1.99712215708261   -2.11806291336825
H         1.43669046353291   -2.28236675287451   -0.87905642777724
