37
 energy: -49.573662801494 gnorm: 0.123843515305 xtb: 6.4.1 (79825abcba525fcdf90b791dcacef51065a7a4e7)
C         1.76265819887603    0.43313449626466   -2.35597667312532
C         1.98919907638387    0.48083745132737   -0.83837391741950
C         2.64030157425329    1.80594709020252   -0.34962850012517
C         4.16418007298180    1.87265290366986   -0.58463172277716
C         5.03280153399077    0.99849833583802    0.33610338719990
C         4.41396268325839    0.81349417026980    1.71426711000635
O         3.31222269548901    1.72648472623299    2.02951391421238
C         2.32807974209802    2.03247397779289    1.10527234884746
O         1.24433607520287    2.49833806949984    1.45882077019653
C         3.87608692481752   -0.65451208772849    1.94129846804460
C         3.69594454011509   -1.10792570356633    3.52198488160113
C         4.67238061540554   -2.27409755980795    3.31558601408273
C         5.06606847822986   -1.77585769122745    1.95858406378306
C         2.56132550408762   -0.87444517182166    1.10955123451125
N         2.78343417765525   -0.61976249979905   -0.30661010108951
C         2.90651283076709   -1.77093214967387   -1.19723377811038
H         2.02654033220097   -0.53271493873932   -2.79814292546523
H         2.44578075039426    1.17739271666201   -2.78780620873112
H         0.70558688631291    0.53366644157729   -2.61408147490404
H         1.00461747880637    0.40221658717828   -0.36839238320547
H         2.24337413886379    2.77691055166624   -0.67612785163122
H         4.38330339155749    2.91419148390822   -0.30553175466992
H         4.42728985516650    1.58147391646563   -1.60304790516403
H         6.04760583902574    1.42253181738239    0.38857321435317
H         5.20763869994943   -0.01032622336894   -0.04769997716574
H         5.12563995899443    0.88371040240079    2.54483368809582
H         2.69108804624399   -1.45444839487078    3.77792292884818
H         3.90411708997383   -0.33761009531621    4.27759960893677
H         4.10483672727659   -3.20666980017492    3.32974272650777
H         5.52806775159524   -2.37673003335062    3.99113801708500
H         5.06646938345913   -2.53394537345806    1.14402532428322
H         6.04778878902194   -1.30463282604892    1.91699418873712
H         1.86600060185954   -0.10174251302141    1.46773203499060
H         2.29968538213248   -1.92138268795985    1.29598142247380
H         1.96464852430054   -2.13146006382180   -1.63266438285484
H         3.40208900327270   -2.52998915816561   -0.58386650494971
H         3.60676881052977   -1.48952722600325   -1.98628100420468
