37
 energy: -49.568720443081 gnorm: 0.149072334505 xtb: 6.4.1 (79825abcba525fcdf90b791dcacef51065a7a4e7)
C         1.07788914011543    0.57958624213368   -1.81384797079199
C         2.03743333121136    0.46530151308317   -0.62098235230737
C         2.82405379008265    1.78042632530013   -0.35565790112307
C         4.33800854882676    1.77498561250943   -0.65531308323996
C         5.06910631067533    0.93557182836805    0.40642282776875
C         4.26508188249638    0.61833400811924    1.65919102632671
O         3.23698993747009    1.57379023754449    2.07977827550183
C         2.55391244106962    2.21417133437342    1.06011831642562
O         1.64523156253155    3.02039029243371    1.26219806874351
C         3.71251674299387   -0.84657191509688    1.87042147398906
C         3.22060096724592   -1.18194696374862    3.41384207196869
C         4.41416120840326   -2.13494941810510    3.56610820595886
C         4.97475520050429   -1.82871918200672    2.21087951157765
C         2.77512778568782   -1.40608210077341    0.74036755042992
N         2.94417901903737   -0.67009433169605   -0.50440234861507
C         3.52484750218494   -1.35997238508305   -1.65350756502215
H         0.56000485071080    1.54118665334838   -1.74222104509710
H         0.40172480132802   -0.28575148081773   -1.84618791100541
H         1.66093328656608    0.52915396248154   -2.73669174170857
H         1.42395913228883    0.36706704295166    0.27927549823938
H         2.38266291893390    2.49598528314209   -1.06281611111596
H         4.76152509639161    2.77770922386946   -0.49439845741873
H         4.60756434977471    1.39084624551046   -1.64068615252053
H         6.03448528427599    1.37948028573572    0.69516833602162
H         5.30368953544302   -0.04111063736674   -0.02562128727073
H         4.95920399694897    0.69539452559238    2.50388734685996
H         2.21789069139903   -1.59596932501889    3.54977003239273
H         3.29739226600704   -0.21654364556760    3.93324085595313
H         3.93588050177127   -3.11427554372390    3.63064786980170
H         4.99617071982754   -1.99499083235035    4.48304927962760
H         5.12569750862467   -2.66654037054339    1.49430773427030
H         5.85169910824883   -1.21593266899960    2.41829078200815
H         1.77072958332518   -1.29720958296156    1.17415392978634
H         2.88423273736952   -2.49490015648346    0.69722522635306
H         4.61277794546888   -1.34223055370135   -1.50257335887799
H         3.17218488827011   -0.92920345773412   -2.59587155904587
H         3.23993447796158   -2.41399038262629   -1.65715608042625
