37
 energy: -49.577740831472 gnorm: 0.134071245008 xtb: 6.4.1 (79825abcba525fcdf90b791dcacef51065a7a4e7)
C         1.62610258661591    0.50983408014887   -2.26687782225292
C         1.97612926093421    0.41022953520806   -0.77547756346104
C         2.64281729260652    1.71440595710831   -0.25262669550569
C         4.13839413103696    1.92645306830124   -0.56911968797322
C         5.06508657068967    1.01944269343826    0.25851303075914
C         4.44284676607652    0.77922733787835    1.62659107380987
O         3.47217277324926    1.78420891843399    2.06768895750368
C         2.42693524507351    2.04790805521520    1.19916691190344
O         1.42845708485265    2.59945086776254    1.66324456864571
C         3.87440833370919   -0.66265282763634    1.93278590454254
C         3.65029659143278   -0.89647576570507    3.55503911646381
C         4.20090855239794   -2.30795200407876    3.30897814244161
C         4.92679410681993   -1.90756988379775    2.06099107554379
C         2.68180204431264   -1.05723679458883    0.98898224707808
N         2.88666123234984   -0.66359064227746   -0.39766257892827
C         3.15240699914798   -1.76866281990824   -1.31512926388694
H         0.82869850954530    1.23547410402303   -2.45556592632072
H         1.35579883747421   -0.44845614912783   -2.73127978605811
H         2.46539013037522    0.89442616157192   -2.85152290550280
H         0.99324209121940    0.29596483861523   -0.30927889973002
H         2.19687631282370    2.54514226366501   -0.81648581034956
H         4.47237845718830    2.97199402689018   -0.49157615618709
H         4.39668865520933    1.60534277487908   -1.57974108440167
H         5.99776807099301    1.56676930403266    0.46569428074269
H         5.29999800646535    0.04234288171723   -0.17240764067398
H         5.24948270648746    0.97589945134836    2.34207290763311
H         2.61008479261622   -0.77384323457781    3.86847094360128
H         4.27825047979629   -0.26037992890528    4.19436029295635
H         3.31974629149604   -2.91457419719518    3.09089547755146
H         4.74637071676913   -2.68143960901273    4.18195147985601
H         5.10002030342368   -2.70482779204837    1.30430385762091
H         5.94071491392769   -1.52773963883016    2.18448579252111
H         1.69847637974338   -0.73820157542158    1.36331734211912
H         2.61183813636419   -2.14959088791693    1.02300457778562
H         4.04665243120967   -2.36178054991478   -1.08012920761361
H         3.32373727647465   -1.27862434525766   -2.27871160324093
H         2.34356044990737   -2.49742091574169   -1.39772216140138
