37
 energy: -49.581196061673 gnorm: 0.134787677352 xtb: 6.4.1 (79825abcba525fcdf90b791dcacef51065a7a4e7)
C         2.05676897554758    0.58658800371062   -2.44892855800141
C         2.07459631307229    0.44511775899612   -0.92040548160383
C         2.53977688287114    1.78894925444935   -0.29076589285184
C         4.04640653426489    2.06803123079791   -0.47532535496925
C         4.84550635747282    0.99410921692884    0.28265458225636
C         4.35580953704350    0.82464216715558    1.71373852774151
O         3.30470091808595    1.78441030763138    2.06127137703650
C         2.24846839398795    1.93322636873994    1.17887924641147
O         1.15854222781575    2.38871296394843    1.52690091354838
C         3.96309034967693   -0.68976311424100    1.93338412911930
C         3.67997881286133   -1.08130027876492    3.51551914362826
C         4.67545995239729   -2.23856031926476    3.35504733813051
C         5.21972034240582   -1.72886160750357    2.05555695890175
C         2.70757528243276   -0.95953540421399    1.02802431640337
N         2.79317770433496   -0.71344820456900   -0.40439381863697
C         2.82607061990432   -1.94864798607960   -1.18333539010484
H         1.48064787169694    1.48665930207744   -2.68549997637038
H         1.57113237520855   -0.24513298151977   -2.97755957428660
H         3.09056985175228    0.61661567659035   -2.80174381385131
H         1.02158051372227    0.30090752806910   -0.66189838026039
H         1.95648324882921    2.54021459946896   -0.84057691861876
H         4.21137100874198    3.06495718945717   -0.03984885565788
H         4.40526992910412    2.15825256104025   -1.50209730963553
H         5.91055115407306    1.27350540678807    0.28103892444052
H         4.71138254806737    0.04012856626204   -0.23458015539844
H         5.13943303905388    1.05948550910705    2.44314822871586
H         2.64446357628197   -1.31673930854506    3.77551045656026
H         4.06133459557169   -0.38086896549917    4.27158746095047
H         4.33093417877687   -3.27447754160864    3.34182007582052
H         5.41431819737619   -2.24494933955800    4.16322558844886
H         5.15254169343293   -2.44254766594453    1.20447395889004
H         6.16056215202353   -1.17918414536474    2.07068084341348
H         1.89207759410360   -0.30999205659309    1.37716117643376
H         2.51942503948173   -2.01729948189903    1.24021422933446
H         3.49962202314172   -2.56304733675990   -0.57052995107351
H         3.01004599451563   -1.85187842399369   -2.25793829052166
H         1.86479288205631   -2.46306835295532   -1.12451804806399
