37
 energy: -49.577643182684 gnorm: 0.126713909255 xtb: 6.4.1 (79825abcba525fcdf90b791dcacef51065a7a4e7)
C         1.78368662230770    0.58819084761066   -2.42753103827654
C         2.06156333544151    0.48707029142234   -0.92112019828896
C         2.61194430024274    1.82272712512188   -0.34507878044812
C         4.13730414504279    1.93069283160088   -0.55365156305338
C         4.94171546287444    0.97754811587747    0.34681508267685
C         4.40219083090189    0.81817767569520    1.76104191894120
O         3.34946180571382    1.81611052111213    1.96757261908880
C         2.26360288585037    1.92402395533339    1.11571914477433
O         1.13381769843171    2.08815163246218    1.57742651811461
C         3.92350021345660   -0.66350383473514    2.02819561688932
C         3.65170108408459   -1.04912758871689    3.61376309634345
C         4.65789282443325   -2.19757520352776    3.45682055659737
C         5.14159759676208   -1.75123980919561    2.11090012612138
C         2.75255018710372   -0.90461360403924    1.00863018738298
N         2.87446376981386   -0.61064411069912   -0.41208351363220
C         2.95083483370777   -1.81839263381027   -1.23004524380824
H         0.99507243287609    1.33511937068374   -2.56242117503067
H         1.46416009673582   -0.39744483708793   -2.79287821535160
H         2.63361430899898    0.97138977696837   -2.99753632389291
H         1.05391170726853    0.44231761642586   -0.49791788721917
H         2.08137149363511    2.60003485044522   -0.91183132608515
H         4.39117025519554    2.96584753397846   -0.28029982789494
H         4.35264292303422    1.80660756391598   -1.61639119808020
H         5.98563333918478    1.32603217726171    0.31247001908353
H         4.84363791156398   -0.02285170994724   -0.08351158122369
H         5.17890232450094    1.10384941158229    2.47962845267993
H         2.63061822587193   -1.42117938407795    3.73328750429179
H         3.91367870741173   -0.25536070696553    4.32718962800125
H         4.13859921211784   -3.15636579069531    3.40157368410559
H         5.47736461802211   -2.23501278479947    4.18219550619051
H         5.04183196431903   -2.50853308256985    1.30172971792624
H         6.12578785879540   -1.28779145986667    2.04653779903932
H         1.84823873065186   -0.38976347034015    1.36358048725526
H         2.48240512161136   -1.95674418523711    0.86958772823447
H         3.65642643885829   -2.49684429594595   -0.73151501489567
H         3.25630835466971   -1.59673587601179   -2.25743849705296
H         2.00970597974462   -2.37001697701981   -1.27619441289690
