37
 energy: -49.580366667848 gnorm: 0.135626415691 xtb: 6.4.1 (79825abcba525fcdf90b791dcacef51065a7a4e7)
C         1.20895440598837    0.53064312276210   -1.77121567743495
C         2.07221286764850    0.41288766285772   -0.50724061769123
C         2.80065280394786    1.76528189139226   -0.26407973057455
C         4.28277323694081    1.84526934346753   -0.68693062934743
C         5.14254659253332    0.93206341326605    0.20371368950430
C         4.56912060023147    0.66916898087159    1.58884633233535
O         3.61474360300016    1.69331529558267    2.02134161336516
C         2.55501236287614    2.03068738305534    1.19700003728442
O         1.56834300538215    2.55068903042250    1.71911883886604
C         3.90216528330184   -0.74579444012708    1.81008152226247
C         3.05404984383723   -0.79169986805786    3.22965807913210
C         3.81483960290018   -2.06678146898237    3.61869606737027
C         4.84657109293483   -1.85466980922105    2.55322613866331
C         3.14013836093843   -1.45412703820767    0.63264725250503
N         3.02503101037050   -0.68647757636808   -0.59908852085597
C         3.34286382644583   -1.43185886209242   -1.81438250203597
H         0.62816578144261    1.43890535326245   -1.58212784737706
H         0.51339870836231   -0.31962240865976   -1.78865890734372
H         1.78008514616320    0.67448141621137   -2.69167466290372
H         1.39954162422852    0.16348450174766    0.31845682042375
H         2.21652433382044    2.49815565311620   -0.83732770444049
H         4.53083053148625    2.90044505916928   -0.49775817627973
H         4.42413033606471    1.59953582127774   -1.74088351362253
H         6.07346386407005    1.50380016534941    0.34117414626342
H         5.28246520441336   -0.01458069346268   -0.32533050607186
H         5.36245774645924    0.80951824174134    2.33193041484771
H         1.97735881290476   -0.74755538795226    3.04497857418532
H         3.39161137168466    0.05380032117037    3.84517185812095
H         3.22678320243206   -2.94737687131870    3.35272826984723
H         4.16891700717176   -2.17510888552761    4.64922931350674
H         5.06814063649205   -2.76015140473302    1.94559709721467
H         5.71505320566704   -1.33455946209681    2.95668791660840
H         2.18878298425964   -1.84985655637863    1.01626252518923
H         3.70759966541148   -2.36959199925362    0.43465358045566
H         3.05711485748509   -0.86125689137205   -2.70850188635988
H         2.74421264637533   -2.34697118237640   -1.86095386908348
H         4.42410400483205   -1.58272473416943   -1.79700862718624
