37
 energy: -49.577307977182 gnorm: 0.148164911239 xtb: 6.4.1 (79825abcba525fcdf90b791dcacef51065a7a4e7)
C         1.69687227916897    0.54878097558159   -2.21029578794307
C         1.93083046742060    0.46336835157532   -0.69547475997947
C         2.83827685399097    1.67738007083236   -0.34699416039365
C         4.33367719604309    1.33274821019135   -0.51097142247115
C         5.06638907856994    1.48888359023572    0.83259012136052
C         4.22852420481892    0.90780804328456    1.96257106371395
O         3.01761176790442    1.70639177123880    2.16925534266941
C         2.40627072718385    2.15820311375818    1.01231200887513
O         1.48640905215754    2.96430768249428    1.15575569086315
C         3.79153774093972   -0.60952480188217    1.91119271971193
C         3.71801736411227   -1.28649334656818    3.41881105594667
C         4.80392041174697   -2.29679282625180    3.02372343121579
C         5.01532830261745   -1.66905222893607    1.67987230868516
C         2.56507322800640   -1.07131305414365    1.04441248202279
N         2.74788628501877   -0.69322555183571   -0.34962398881059
C         2.88727291611889   -1.87587053797934   -1.19548015748863
H         1.01519174026031    1.35525682499443   -2.49825109635923
H         1.20633620652405   -0.39513874443115   -2.48496540256979
H         2.61585815243425    0.66632216285299   -2.78975550363732
H         0.97033670145032    0.41205061559391   -0.17462639534780
H         2.58002164460355    2.42550686910176   -1.10892183990421
H         4.71489146972517    1.92608012584687   -1.35557034040548
H         4.40597084977118    0.29024219058076   -0.82583377265562
H         5.26755271713768    2.56969624822462    0.89392878083797
H         6.06019001665539    1.03408646535845    0.86604614630188
H         4.77789016171697    1.07336025162176    2.89640466550892
H         2.72590349996924   -1.62171696173086    3.73290345388514
H         4.09197070157670   -0.60006749875130    4.19124488412552
H         4.36325872863980   -3.28849561539361    2.90397235447285
H         5.61519058788905   -2.38540681842119    3.75385538456916
H         4.73456857798168   -2.34809924133413    0.84424549579620
H         5.90989181679200   -1.05157355610048    1.60219624962922
H         1.67289430514421   -0.57129084988202    1.44793962947746
H         2.50748456309382   -2.15891450573472    1.15885263508973
H         3.80832832439327   -2.38014941294447   -0.87291494643897
H         2.83561285033351   -1.52379058007645   -2.23054229913597
H         2.03628506419842   -2.55924568694959   -1.16448382690699
