37
 energy: -49.584423251940 gnorm: 0.124284569730 xtb: 6.4.1 (79825abcba525fcdf90b791dcacef51065a7a4e7)
C         1.69444737656675    0.50015154681046   -2.33653754806577
C         1.93872794557711    0.41216078112573   -0.82349455717264
C         2.50447200531410    1.76248481155426   -0.29882250124334
C         4.01623272931715    1.86638192191153   -0.59151135529620
C         4.98451998717433    1.08156988748457    0.31009413154035
C         4.42693475186213    0.85398581228863    1.70788793322087
O         3.30248113922081    1.72371090332766    2.06277615389979
C         2.28272522658675    2.00544319691000    1.16996371875116
O         1.27875731274675    2.52844287954896    1.65477908153169
C         3.96547868070767   -0.64232949459392    1.91763713623947
C         3.58939269086547   -0.99567853897886    3.48935864287205
C         4.53530327146320   -2.20068158343066    3.39341314147052
C         5.18538727433085   -1.70899663788869    2.13630371882386
C         2.80169217628904   -1.04201581419299    0.94058882541968
N         2.80443194983839   -0.70814058441781   -0.47653087253021
C         3.16158225844849   -1.85386544665003   -1.30918242748451
H         0.97442832970904    1.30496887934462   -2.51500755455053
H         1.13631567436310   -0.38674123696473   -2.66663398791398
H         2.61269355497447    0.54451830480860   -2.92728289543785
H         1.02166806743076    0.31880041309838   -0.23463988925160
H         1.94716938460304    2.51425512448343   -0.87430354965968
H         4.32204283908091    2.91570944367925   -0.46460050317222
H         4.16227177941001    1.63503295619016   -1.64807831166352
H         5.92038480567578    1.65830610496940    0.37268515200691
H         5.18398725113105    0.10549152581261   -0.14055417573566
H         5.19187881815196    1.11056378708972    2.44969924420124
H         2.56406577919144   -1.23690930781071    3.78232838246275
H         3.83998675584170   -0.16289677182545    4.16118652776695
H         3.98814755664560   -3.14117412177651    3.30345831078594
H         5.19248786028780   -2.41639866280182    4.24234127043140
H         5.22458696243487   -2.40566266540950    1.26951489238731
H         6.18020804999752   -1.27445414452185    2.23149722073648
H         1.89695296561191   -0.62819864832584    1.40860796083814
H         2.72867804500412   -2.11740340912321    1.13423897820789
H         2.69654158667368   -2.76524080155921   -0.90940662898037
H         4.24998128137013   -1.96294439317080   -1.27081526787157
H         2.96009452369819   -1.82674269130748   -2.38194042713232
