37
 energy: -49.572670401447 gnorm: 0.158846789750 xtb: 6.4.1 (79825abcba525fcdf90b791dcacef51065a7a4e7)
C         2.10624305060107    0.44190746339224   -2.35689203240464
C         2.12542169576949    0.42603168547046   -0.82193450563511
C         2.69706790191880    1.78955527692594   -0.33949682207363
C         4.21163411780018    2.06999182789721   -0.43606998626455
C         4.90551992637426    0.97255124090563    0.38888411071847
C         4.35388052748121    0.85123113517436    1.80221306777518
O         3.23372952290564    1.75501228458555    2.07644778204102
C         2.31986158987714    2.07941012691662    1.08852031098511
O         1.27571515400054    2.60776874570604    1.47208459173991
C         3.78307091292850   -0.61378147553370    1.95651925805735
C         3.70152618541168   -1.12329822749454    3.52825329170433
C         4.66953068120556   -2.26982271011324    3.20509139813074
C         4.98750892381891   -1.71461229039345    1.85035207896265
C         2.52150238628882   -0.97204001727642    1.09114806594914
N         2.83304765472308   -0.74207628606534   -0.31233499070009
C         2.81868951201304   -1.96625244397140   -1.10903884392857
H         1.66223690493046    1.40190367325768   -2.63845149314005
H         1.54243760824303   -0.40908975467407   -2.76307010052631
H         3.06689923532239    0.35471922512172   -2.87037272807946
H         1.11811712916992    0.52751350967528   -0.40780438532973
H         2.08047897612088    2.52892776741687   -0.86871292110569
H         4.53080752753926    3.04387440367039   -0.03557593118414
H         4.56436242090976    2.05520873891814   -1.46880794027679
H         5.98230153269332    1.20253577858445    0.38307478084427
H         4.69119920946740    0.11941802169430   -0.26060060815359
H         5.03071258462802    1.03092596796263    2.64534048425758
H         2.72289467062914   -1.49099289289296    3.84825301909718
H         4.00858110901371   -0.32402804443747    4.21713645813623
H         4.08254658212508   -3.18624390647962    3.11780267678334
H         5.52063553119837   -2.65453903622132    3.77668416562632
H         4.83945171665196   -2.37539163213066    0.96737259526947
H         5.99556370990082   -1.34771602555596    1.65859691972996
H         1.77674933489766   -0.26139247732130    1.47736377536125
H         2.20064413538288   -1.98930839585174    1.33914999983729
H         3.41256352778328   -2.77360984315421   -0.65939871577696
H         3.23306870908724   -1.65998573486965   -2.07468540505364
H         1.77529062379802   -2.13011200344513   -1.38582666505126
