37
 energy: -49.587332791049 gnorm: 0.137518451068 xtb: 6.4.1 (79825abcba525fcdf90b791dcacef51065a7a4e7)
C         2.32096445985961    0.36767416655687   -2.41748434284639
C         2.16342423014329    0.32537409436884   -0.89101577924915
C         2.89128404420915    1.58252915483535   -0.33558497959769
C         4.42764336309352    1.44336000449505   -0.28960816566500
C         5.03089490308154    1.73530091240076    1.09504366862010
C         4.16449464962171    1.02900323299565    2.12800906988746
O         2.93914956051429    1.82870401093319    2.20397887753042
C         2.31973963939729    2.03112419371952    0.98260805467831
O         1.25624907164711    2.64917839160567    1.04196300883616
C         3.79161560839192   -0.50002826279799    1.99045967246435
C         3.93861221434753   -1.49924716531057    3.30063458444572
C         4.82008661087720   -2.42898117737016    2.45530491139916
C         5.04690333451010   -1.37541893287702    1.41451282423703
C         2.43659501691964   -0.77078353972694    1.24254096181882
N         2.70411136971125   -0.83107523793236   -0.18732210390169
C         2.24610568565773   -2.06174746983021   -0.82703072820598
H         1.94280568961229    1.35648062821994   -2.69545492072570
H         1.66710574752152   -0.39018097805013   -2.87044994448592
H         3.35222280664145    0.14958089611804   -2.70569620344538
H         1.08974312055408    0.41281986310671   -0.70120817453797
H         2.72167695437183    2.46062395057610   -0.97363374879023
H         4.84044632139265    2.10378405583516   -1.06687788922485
H         4.66229946089170    0.43101825690096   -0.62320101289864
H         4.98590249658703    2.82750992668147    1.22710583195683
H         6.04130730577692    1.32616574100621    1.18033870696233
H         4.62040615410540    1.25829775895132    3.09797011361420
H         2.99036615628392   -1.74989440352015    3.78367102881281
H         4.53176219572176   -1.08699698061813    4.12882444731902
H         4.29194234371592   -3.26331809841036    1.98953351084315
H         5.70326138341871   -2.74460253695894    3.02053927743076
H         4.90098207062206   -1.71558051918983    0.36513199598531
H         5.93393175227937   -0.75094800747534    1.51831078505258
H         1.70358120638392   -0.00377541831377    1.53103515369305
H         2.08531453705109   -1.76927994126049    1.52342687379694
H         2.34609435612628   -2.90839177540658   -0.13429394287474
H         2.76457175275018   -2.15743351657194   -1.78620736336266
H         1.17766516274106   -1.99361847247723   -1.04135754682391
