37
 energy: -49.579595872784 gnorm: 0.141126851157 xtb: 6.4.1 (79825abcba525fcdf90b791dcacef51065a7a4e7)
C         1.77973322653754    0.61665941295575   -2.30036538482288
C         2.04161055566865    0.53304399783338   -0.79002000211855
C         2.75621847162331    1.78809067696281   -0.21303175653987
C         4.26416942399539    2.04719243116525   -0.41510122137263
C         5.02834438399101    0.89059000505232    0.25176464171637
C         4.47243143823466    0.68913099709342    1.65422619068415
O         3.55380382555527    1.74660917185112    2.08390810517871
C         2.44853758656469    1.86251154266476    1.25847339312630
O         1.35153381642522    1.94298680996713    1.81221759977525
C         3.76609784439829   -0.71619561247462    1.80270481591958
C         3.36486360305617   -0.86008040455349    3.40111433188741
C         4.56712620099737   -1.79794635420687    3.57705981242160
C         4.83140812145578   -1.91874225763802    2.10728064098412
C         2.60136714391672   -1.21725605696824    0.87474339426360
N         2.68414960994801   -0.74267124450107   -0.49916516158290
C         3.09157343832792   -1.66755542073619   -1.55374824814501
H         1.16222578722296    1.50861283402859   -2.44567045478580
H         1.24847155232437   -0.27139210789572   -2.66938976209820
H         2.63988448662666    0.80078929456800   -2.94871753509812
H         1.09510433144858    0.48501817362832   -0.24386591624229
H         2.24791869568262    2.66741157058974   -0.63177913582070
H         4.48274660848003    2.95458309092594    0.16763426030829
H         4.45331874114639    2.20002235806350   -1.47907914823724
H         6.11295327673115    1.07151988565397    0.19455284226408
H         4.88813690374128   -0.00308918247336   -0.36246612045252
H         5.29806660572285    0.86551707794058    2.35313264040891
H         2.42219293691669   -1.36392569251669    3.63096379208604
H         3.42637375695042    0.14197380268173    3.84808126217027
H         4.31566200705571   -2.71209520675628    4.11844239192116
H         5.34764404109856   -1.36115138695968    4.20880855115809
H         4.46366815617222   -2.87576503374414    1.67475576943082
H         5.85144981049379   -1.68849367304655    1.80059203511608
H         1.62860690921884   -0.85583418350590    1.23799446222379
H         2.51467982702522   -2.30886311654470    0.88775288453003
H         3.70683290499936   -2.45518374205793   -1.09791278296431
H         3.72796140697835   -1.13074509756174   -2.26426053797329
H         2.30595619155900   -2.14803070437081   -2.14034156171333
