37
 energy: -49.578675377508 gnorm: 0.147210078149 xtb: 6.4.1 (79825abcba525fcdf90b791dcacef51065a7a4e7)
C         2.38225369748290    0.37847135449761   -2.39299808921422
C         2.15532470700636    0.46938083550815   -0.87742784127973
C         2.63605476983186    1.84862912152071   -0.34329782465756
C         4.14952971894141    2.14954428211053   -0.31636232460868
C         4.91332391576307    0.97245835077437    0.31410557184381
C         4.37731171346839    0.91130676009356    1.73729732094722
O         3.20265401649489    1.73148333417628    2.04430386210375
C         2.21391771785211    1.94166683184502    1.09846418327442
O         1.12204307158544    2.31388618497652    1.52949630652556
C         3.86372685486917   -0.56931496598254    1.93701180378759
C         3.86225266774078   -1.06086373461996    3.51656312472697
C         4.64202449283007   -2.32744967857076    3.13748443607891
C         4.97105878456658   -1.76334247563371    1.78907541334048
C         2.52822230523238   -0.84273840319234    1.15570593937895
N         2.75333906078011   -0.71678335079282   -0.27718143289461
C         2.61340026333582   -1.94114020250750   -1.06134843041857
H         2.00061786056844    1.31860798098982   -2.80349428152047
H         1.70530744172861   -0.34890801696825   -2.86173733656640
H         3.45716454514799    0.33378195974045   -2.58455500662742
H         1.07637273665116    0.49282729862750   -0.69916478696002
H         2.07105807397000    2.61971702154225   -0.88470842743371
H         4.27260717249000    3.07076582638973    0.27263448576399
H         4.55158852624370    2.34806513759975   -1.31141090140016
H         5.98764220633800    1.17870487135930    0.18885442867851
H         4.60901944927279    0.07435361933844   -0.23032692695312
H         5.13012809978996    1.16913669416998    2.49098619915536
H         2.84902438537267   -1.13531848755911    3.92047372638529
H         4.54298186416256   -0.37202221515532    4.03596729763278
H         3.94006744671688   -3.15119853305476    2.99363871017367
H         5.41349592268186   -2.65399555249174    3.84268230502982
H         5.01729878003411   -2.39988320726989    0.87754878336752
H         5.94821829345663   -1.28398724017044    1.73489774650407
H         1.69476031840093   -0.22985404880967    1.52793366833425
H         2.31603868655012   -1.89220524358642    1.38567854324422
H         3.01672803252279   -2.80963945925418   -0.52308797931876
H         3.34609678376896   -1.82171232078478   -1.86563412927476
H         1.58828305084088   -2.25132238521830   -1.27363220441752
