37
 energy: -49.572204481425 gnorm: 0.151168883151 xtb: 6.4.1 (79825abcba525fcdf90b791dcacef51065a7a4e7)
C         2.60487459041075    0.44619432897194   -2.46850973105466
C         2.18698082919130    0.42186834056476   -0.99152377243978
C         2.65010591411388    1.70952584681627   -0.25248697491456
C         4.10674196176784    2.20868970158196   -0.35702756023298
C         4.86581224187856    1.10898643775795    0.40511919121596
C         4.31439090715342    0.85867872484449    1.80147298117371
O         3.10983956341885    1.62136876853900    2.13929436908016
C         2.14725505949541    1.81073738757086    1.16258567891243
O         1.02780407350027    2.13820533438161    1.55770643046621
C         3.89139778745660   -0.65597942157406    1.95241498449756
C         3.79666426997588   -1.16859630535217    3.52240040342118
C         5.15458547227755   -1.82804589670085    3.24462179686802
C         5.09270006758697   -1.74667894199699    1.74988535948940
C         2.62710321704498   -0.83172794795646    1.03620359653989
N         2.72547608975646   -0.80444845166490   -0.41613488043919
C         2.21706794757286   -2.01540507175441   -1.05539670168403
H         2.25562314089381    1.35965042648918   -2.96006978780555
H         2.10530869865136   -0.31778719040865   -3.07991763372882
H         3.67908194965386    0.26132681371798   -2.54614397233926
H         1.09324376096000    0.40975290764443   -0.98395777798570
H         2.04731980468524    2.51528280512769   -0.69331335798056
H         4.12850154526533    3.18340831638886    0.15303574773345
H         4.39018837147827    2.30285690044126   -1.40677712786639
H         5.94604500293107    1.31227185703097    0.46959776692031
H         4.75079779820744    0.23299917155051   -0.23909975381425
H         5.05888173621064    1.27033991320310    2.49250422715069
H         2.93309213709737   -1.83302655257747    3.61236959580555
H         3.91343641349019   -0.31160259711197    4.20033964771203
H         5.12037621882770   -2.85112163551536    3.62428378403849
H         5.91901216459265   -1.29057417020052    3.81548113878088
H         4.72958982382631   -2.69357188199467    1.29190309693190
H         5.91802900484389   -1.30352122988812    1.19310824827517
H         1.85574746449445   -0.11304303807884    1.34820023753266
H         2.24323099729580   -1.81773298183733    1.31856175112665
H         1.31298596944314   -2.29402054945149   -0.49709771598361
H         3.00329696437035   -2.76845663436556   -0.94252521526975
H         1.93369571936153   -2.00272735750079   -2.10976008433695
