37
 energy: -49.580900595055 gnorm: 0.140024122176 xtb: 6.4.1 (79825abcba525fcdf90b791dcacef51065a7a4e7)
C         1.60116536907557    0.67010914959397   -2.23269525641385
C         2.01354412244774    0.53092824285703   -0.76052443524671
C         2.87343747165394    1.76148962987522   -0.35429269074511
C         4.37331535385918    1.53893951974887   -0.64190290690353
C         5.08492325009123    1.22513198859816    0.68532790194953
C         4.25554450564085    0.68646515481530    1.84226015101445
O         3.11722768326644    1.57418908610195    2.09314724414550
C         2.43684359281767    2.14858635515462    1.03317813186613
O         1.51251565565130    2.91092630050778    1.31775122271248
C         3.81157085662688   -0.82831370035109    1.90728573729415
C         3.52826255140680   -1.31670653458883    3.46221774950794
C         4.86656108161343   -2.06479550794527    3.38938481194790
C         5.00756579037819   -1.94336815880656    1.90275760026986
C         2.55564136909443   -1.05215707815520    0.99005792180068
N         2.78559317732944   -0.64865117675298   -0.38980207386016
C         2.89209147728789   -1.72005852664101   -1.37686582935359
H         0.87437574014453    1.48599629923045   -2.29684281009589
H         1.07051389383791   -0.22157795224737   -2.59374455113683
H         2.49080322230668    0.91165244332034   -2.81948811182013
H         1.04327895096100    0.60339684111900   -0.26072586661203
H         2.50887880791650    2.60005678401391   -0.96324701777853
H         4.80233984249397    2.41534064725781   -1.15040410609091
H         4.37821811679058    0.70993763195819   -1.35177283255509
H         5.56035685170320    2.11589712346047    1.12451535851804
H         5.86020382481072    0.45988636506765    0.59078048504336
H         4.79007120718544    0.78045385419874    2.79446970667364
H         2.60120278153323   -1.89618246025841    3.47152753060190
H         3.29075675931725   -0.44523654914289    4.08816233935813
H         4.79331928822230   -3.09262786996493    3.75020850530870
H         5.63912349676125   -1.56842179655549    3.98592891270987
H         4.69188317706959   -2.84865975799395    1.33796149149394
H         5.89186204491262   -1.64311548134169    1.34112977186452
H         1.81429068394527   -0.46694136223118    1.55287346079063
H         2.28781774497196   -2.11212945681826    1.05345344096867
H         3.25749283646768   -2.58417420908316   -0.80548635703822
H         3.61843865550156   -1.39962876248391   -2.13034259686623
H         1.96001441641755   -1.95300737466689   -1.89562384305769
