37
 energy: -49.578314894053 gnorm: 0.139128367311 xtb: 6.4.1 (79825abcba525fcdf90b791dcacef51065a7a4e7)
C         2.07378418127406    0.37178032392692   -2.43385811030696
C         2.10641904042379    0.42572943511645   -0.89999405531974
C         2.59329421502825    1.79515420035329   -0.34650467600396
C         4.11200118256120    2.02909223932451   -0.49032407710180
C         4.89523272462378    1.08718553952336    0.44013964824474
C         4.27115389287794    0.86494159128688    1.81041574475873
O         3.16901944720535    1.79884702419123    2.05512706085053
C         2.20764901816872    2.03756496547007    1.08808522717705
O         1.15159534176433    2.52212361866332    1.49610449815582
C         3.88406501169317   -0.65876067410097    1.96658734703991
C         3.85495151794277   -1.12262050759127    3.55422433121010
C         4.68167003050704   -2.36611347182275    3.19891256129918
C         5.09772359413908   -1.75236277636284    1.89703049517247
C         2.62119059513540   -0.93309590235268    1.07290953601723
N         2.88553472850785   -0.66868465924382   -0.33418582234007
C         2.80312900844483   -1.91011897616667   -1.09943127583750
H         1.63510723572126    1.29246913321703   -2.83123018378767
H         1.43480873445069   -0.44360053416712   -2.79980605969072
H         3.07365558822981    0.36328301146926   -2.87466361017834
H         1.06982316729916    0.37612931502912   -0.55434446485845
H         2.06950984555903    2.55573725668006   -0.94155644902208
H         4.25484243237336    3.07255358716653   -0.17173463600816
H         4.47172280781600    1.84992853799613   -1.50505764148599
H         5.90767421143389    1.51900468497303    0.41047949499293
H         4.76829114287098    0.07584293814888    0.04432145048485
H         4.86520740972342    1.21938179205101    2.66055001654007
H         2.97321814095534   -1.42336232188203    4.12643010080982
H         4.33044420863051   -0.30469495276177    4.11331292796549
H         4.13249188845911   -3.30918162482105    3.16692366129224
H         5.59633438161375   -2.53912465456488    3.77559329379890
H         5.00686417341244   -2.38971376947841    0.98943404316159
H         6.06406523141116   -1.25039768982528    1.85493231580840
H         1.92371431690558   -0.18512564337354    1.47652686452190
H         2.27512122080451   -1.95949511690059    1.23424947743117
H         3.62411376512940   -2.49251690950089   -0.65956169558284
H         3.08695575821368   -1.72008389403636   -2.13929268146221
H         1.84265389289258   -2.42641224875434   -1.04401013637327
