37
 energy: -49.578404520019 gnorm: 0.129310112967 xtb: 6.4.1 (79825abcba525fcdf90b791dcacef51065a7a4e7)
C         1.75411857758801    0.80536989626845   -2.32451538309886
C         2.00914517838054    0.59034319850847   -0.82603634951557
C         2.62932648395185    1.89782787109702   -0.25631616437687
C         4.13240108707050    1.82792251330007   -0.59948059211542
C         5.06560269959229    0.97649940083931    0.27836678008261
C         4.47391425619456    0.68103295040525    1.64917954497561
O         3.43416686412328    1.61771869428718    2.08312477739033
C         2.38434513030338    1.90806712661559    1.22874701953463
O         1.25020060991790    2.09349932612915    1.67130466933752
C         3.91467586989598   -0.78318869177217    1.84717778780290
C         3.42317316974458   -1.01600482602022    3.40949224188166
C         4.55964300901251   -2.01201956969515    3.67851943613417
C         4.96133509287221   -1.97794587976829    2.23554686587119
C         2.70823703601418   -1.05510201727879    0.87798221891929
N         2.83658547438768   -0.56036369406365   -0.48527457637848
C         3.08033459765298   -1.65421163263089   -1.42209552421208
H         1.06751181758014    1.61036435456287   -2.60480983700708
H         1.32575448025374   -0.15417526023932   -2.64518774287837
H         2.66006702871220    0.98522072671745   -2.90849791891390
H         1.07562800106936    0.39510144246905   -0.29041415315520
H         2.21238317542997    2.78460319464613   -0.75301631814812
H         4.58818029332444    2.82738729791818   -0.66311925089873
H         4.14057991761157    1.37018120571687   -1.59023257357735
H         6.03509439057412    1.48049016568573    0.41425061010678
H         5.27534556378199    0.04714737633973   -0.25820826599899
H         5.19567129122975    0.74657644704533    2.47138787112410
H         2.45226539762439   -1.51848354102614    3.39637461501320
H         3.33035619889718   -0.12388173023790    4.04445440630981
H         4.27292597892720   -2.97455530968788    4.10667332323948
H         5.31285175375297   -1.53887104440594    4.31719890737157
H         4.74683263532237   -2.91505574343571    1.67517482201370
H         5.99127639353063   -1.76498333877815    1.95019581806562
H         1.84940119004605   -0.57355747790811    1.36722187323039
H         2.45771421028536   -2.11873049154128    0.80571399373610
H         4.01652532865586   -2.10739249086388   -1.06873651708949
H         3.19358881420528   -1.12594881263719   -2.37398552418978
H         2.24143349372344   -2.35270370660620   -1.39981441222647
