37
 energy: -49.561419329082 gnorm: 0.152362133257 xtb: 6.4.1 (79825abcba525fcdf90b791dcacef51065a7a4e7)
C         1.11954623986402    0.75680424294597   -1.76829106291073
C         2.02086215242034    0.36953047060921   -0.58745953803321
C         2.82413406448966    1.65162322359121   -0.22730055538440
C         4.31080573077231    1.69919695790368   -0.63891437295926
C         5.18384185000579    0.78075117071570    0.23324837894386
C         4.57026507325139    0.68793651325517    1.62300816825764
O         3.65370904831599    1.74184108727278    2.06569709450033
C         2.56935412894662    1.93904627055201    1.22803739231209
O         1.54995614410067    2.43631246375880    1.70770420133720
C         3.91553826306886   -0.74185608694511    1.77440759366514
C         3.02214697865338   -0.77747729686504    3.16623654295830
C         3.83988397797011   -1.95709959161117    3.71009510573188
C         4.87204045152486   -1.74172511417419    2.64569187589077
C         3.15061879044960   -1.37537127099385    0.55689857546682
N         3.00365399096576   -0.69839895653460   -0.72365528629266
C         3.32443618105634   -1.46939249997951   -1.92207847025592
H         0.33390199251087    1.29970841395916   -1.23347512468570
H         0.65163092574552   -0.15058994235199   -2.17417837788004
H         1.62623637081701    1.34830068877508   -2.53479062563300
H         1.37295841221900    0.10125905723518    0.25201409405068
H         2.28530760937056    2.47735803888762   -0.71181198342924
H         4.62185770879813    2.74538963892653   -0.49947991187002
H         4.35946224606762    1.47451029915398   -1.70584076436101
H         6.17047921942132    1.24959562516580    0.37151201789118
H         5.17837197323588   -0.21855494400524   -0.21055046707204
H         5.34791241073337    0.82239506585734    2.38356139373503
H         1.95886432872138   -0.94733949167276    2.97677503043505
H         3.09881736525620    0.12698201853588    3.78571257403794
H         3.33893419348359   -2.87060469693153    3.38366717126015
H         4.29287353600319   -1.92624372251875    4.70656526665712
H         5.30554380302665   -2.61371102724548    2.10725113055464
H         5.70268390042074   -1.10038010716829    2.93940159846619
H         2.24356496191002   -1.84764800102353    0.96069011196363
H         3.76385707537974   -2.27109332319062    0.41229317625843
H         2.93901930735258   -0.96763269540885   -2.82006481566990
H         2.89478914645871   -2.46609436607255   -1.78075792169289
H         4.41152291321900   -1.57033712264726   -1.90810337171198
