37
 energy: -49.580155913324 gnorm: 0.133168770073 xtb: 6.4.1 (79825abcba525fcdf90b791dcacef51065a7a4e7)
C         2.06599567358495    0.58576997544207   -2.38333115597196
C         2.11645001897859    0.43728574249311   -0.85620271949809
C         2.58141002548154    1.78427081729921   -0.23317342217227
C         4.07533131833293    2.06360406346761   -0.50160213428656
C         4.96241150217968    1.00797414781070    0.18040728055976
C         4.44336738470481    0.74126461001194    1.58610374709015
O         3.39169176472830    1.63140715579446    2.08448910596758
C         2.31412552556888    1.86027650667104    1.24612219299322
O         1.19494246414207    2.17198580907805    1.65452488909001
C         3.86806537399715   -0.69820947679718    1.89079689182302
C         3.68435372834057   -0.80109640428984    3.53161042355049
C         4.65577349940467   -1.98831265245470    3.47826330760409
C         5.07465961523993   -1.78972679145786    2.05355790790847
C         2.61334391087237   -1.04182471162747    1.00967588332152
N         2.83794777040086   -0.74337047617808   -0.39751515668896
C         2.77429079809152   -1.91667439181708   -1.26518799694549
H         1.42877600368473   -0.20515752025370   -2.79124621905467
H         2.94860174983207    0.53097014624108   -3.03529507385787
H         1.58202851497831    1.55055105958916   -2.55391185581443
H         1.06084982109534    0.41872970628459   -0.57014554787205
H         1.87837456564476    2.45850144435569   -0.74118667193131
H         4.34715448272532    3.06141099376850   -0.12582570265713
H         4.34560100437624    2.09413167620142   -1.55858171874868
H         5.98499311080448    1.38588869191953    0.33497997154174
H         5.04865306338292    0.02609602791677   -0.29296128820848
H         5.24041847740905    0.74237372543837    2.33840956505169
H         2.67637074538863   -1.05322779603990    3.87178523587626
H         3.96754584849847    0.18709477888724    3.92014096367725
H         4.08025744778991   -2.90924126636301    3.59082096482124
H         5.48833048591398   -2.05056945969108    4.18683748538081
H         4.91207134809528   -2.68349367674376    1.41094694456321
H         6.07422761760919   -1.44954903275420    1.78392804828374
H         1.83209894517702   -0.34991566323436    1.35573625323477
H         2.18305017310010   -2.00968187239801    1.28786598726129
H         1.74437469899761   -2.17944271886218   -1.54252208244543
H         3.27462020216338   -2.78446107653050   -0.82405372176122
H         3.32880076612913   -1.69831416535920   -2.18005421524226
