37
 energy: -49.582482907108 gnorm: 0.133381308806 xtb: 6.4.1 (79825abcba525fcdf90b791dcacef51065a7a4e7)
C         1.75030226423195    0.42261212593499   -2.30586301882496
C         2.04670642645394    0.47733496234566   -0.80058414868075
C         2.80839861566879    1.76400851373541   -0.37277774079450
C         4.31989248161097    1.50689189573617   -0.54929745430012
C         5.09089233870213    1.44161498903548    0.78025162154722
C         4.28171238895200    0.93208057674892    1.96436554782397
O         3.08202160376693    1.76107365541050    2.10675863691862
C         2.31241083776619    2.10166171193206    1.00762793465671
O         1.31127142174184    2.77932120460426    1.24219916274219
C         3.90935874734222   -0.60322011090413    1.95434289143393
C         3.67657261531925   -1.36494535199490    3.40423598180198
C         4.78942992283046   -2.37598404341698    3.09547381416501
C         5.15995624117768   -1.65025840228767    1.83820696465692
C         2.67184529925674   -0.94665652019111    1.04914485382387
N         2.82615392265591   -0.67804885962291   -0.37343984599422
C         2.54443713915043   -1.88266454248543   -1.15002672480809
H         1.11194876159092    1.27671494156954   -2.55289156025753
H         1.31996129509465   -0.50169012795908   -2.71516176203736
H         2.66804507988680    0.60513918966622   -2.87027113751034
H         1.03081068254222    0.47023227474159   -0.39515819180466
H         2.54832636455352    2.64637214215331   -0.97337753730203
H         4.65445017946617    2.41288482383537   -1.07651884641941
H         4.35171844530943    0.57867136998432   -1.12251403432698
H         5.42821024713444    2.43263977212152    1.12153122556120
H         5.93601138816923    0.78217529494429    0.56458259445990
H         4.83417123074882    1.17572791266780    2.87906817875056
H         2.69102345062225   -1.77842915796496    3.63454622873570
H         3.99323932878503   -0.70186600649565    4.22137950401370
H         4.47711805116706   -3.40024948479455    2.88254410824621
H         5.65275048345232   -2.36560659712596    3.76902732126212
H         5.19312010216643   -2.28182623641393    0.92266053812795
H         6.16327956311124   -1.22505279223111    1.84819952440618
H         1.82095229468618   -0.37562762246528    1.44757514103811
H         2.30953113303927   -1.96973888057927    1.19516146854086
H         3.15840390739138   -2.68085270344087   -0.71113147891593
H         2.99662373109041   -1.71042508905571   -2.13178206931538
H         1.50477161402682   -2.21562221532586   -1.13059793213788
