37
 energy: -49.570036009529 gnorm: 0.153717146077 xtb: 6.4.1 (79825abcba525fcdf90b791dcacef51065a7a4e7)
C         2.39367172928587    0.50485305696140   -2.45877819129821
C         2.18770073095718    0.28524381481426   -0.95343364146417
C         2.64826642860645    1.64902823452349   -0.36462688690196
C         4.11752490553047    2.12106586956974   -0.38311660691312
C         4.98987538554743    1.16895679334018    0.45288312886587
C         4.34748904099468    0.94051646898635    1.81364692970483
O         3.23744932172257    1.86921192618943    2.04190090102546
C         2.25564754148835    1.90070545706641    1.06647141908474
O         1.12469038127657    2.17024063350045    1.47244292406759
C         3.91365900445171   -0.57418050532167    1.92932101940204
C         3.66908791866203   -1.22337532807376    3.43109856011445
C         4.95440467329947   -2.03453376267061    3.21669814204438
C         5.09254695790199   -1.69518451864222    1.76396065852612
C         2.65489076471031   -0.97909449778758    1.08060505109945
N         2.89219072958364   -0.83868638119668   -0.34896927558626
C         2.22276324618101   -2.03052182811078   -0.86369793689917
H         1.96130253307621    1.50868261211765   -2.51702783657621
H         1.87012199899163   -0.06739222939517   -3.23690702040020
H         3.46503489463880    0.53109813005904   -2.67235883258226
H         1.10580847785555    0.24599579566442   -0.79712128676148
H         1.99796527225708    2.35303190508204   -0.90166553033770
H         4.14701409306572    3.15386228861347   -0.00473006671335
H         4.38915185701065    2.08028036981223   -1.43940199842926
H         5.95265456720303    1.69112676722032    0.56593191837862
H         5.24019758138119    0.25813636127710   -0.09788450288076
H         5.03188683459232    1.19886899221978    2.62980214281141
H         2.69613138506274   -1.70741502572600    3.31118194904777
H         3.64535061770316   -0.47983833299872    4.23996495300445
H         4.88356618054671   -3.08153518378913    3.51797441719815
H         5.81540533806667   -1.58444625842647    3.72187484923498
H         4.86502664828559   -2.43571483748012    0.96517883959596
H         6.02809608925213   -1.19961863031488    1.50565921638912
H         1.80187710474807   -0.36161998506981    1.39672611404230
H         2.44951377932283   -2.00064229818209    1.41757733608892
H         1.18348501728461   -2.00315644281788   -0.50895793408070
H         2.70273479790250   -2.95522288229667   -0.52823114088666
H         2.24844262161313   -2.03829178874139   -1.95522113687676
