37
 energy: -49.582791156259 gnorm: 0.135396759139 xtb: 6.4.1 (79825abcba525fcdf90b791dcacef51065a7a4e7)
C         2.18983771195629    0.50877474276404   -2.38539282702707
C         2.07436344717797    0.44297793253112   -0.85599721455116
C         2.53399616324873    1.81064630769259   -0.27552926361951
C         4.03025644456586    2.10214855660748   -0.51659657593054
C         4.87894881023523    1.15732092518538    0.35140377304760
C         4.30224937074756    0.81314401452464    1.71723074222930
O         3.16532778997728    1.64080890379598    2.12850127038931
C         2.21166805928840    1.98172797765985    1.18473406605405
O         1.22463207045053    2.59961232725880    1.58536487592291
C         3.90779339718318   -0.71046661466141    1.85474825073713
C         3.69117277829967   -1.09726979674355    3.44850592925375
C         4.82509298321991   -2.12008482952987    3.29339602352280
C         5.07852406428184   -1.85194805311126    1.84130692429114
C         2.59082104893413   -1.03399114666446    1.06121985052751
N         2.75171642423702   -0.74749945952581   -0.35713963294412
C         2.77835980132966   -1.96737500251593   -1.16009929479189
H         1.86488324351307    1.50162761823246   -2.71197768502998
H         1.65614086053982   -0.37173376565864   -2.76870197987815
H         3.25089645492471    0.44856837867832   -2.63966445901952
H         1.00137435341401    0.37992782199731   -0.65305909694242
H         1.98422825165563    2.57633259955460   -0.83980135300943
H         4.28141311307641    3.15571531686246   -0.32260733325989
H         4.27358483667995    1.89702724477752   -1.56057934189350
H         5.87899958017000    1.59645037778334    0.49086358218811
H         5.07850247363057    0.23297559687686   -0.19756261692464
H         5.04530120452749    0.96240564938365    2.50896973921833
H         2.65909822759621   -1.37409411881961    3.67982659708920
H         3.95334232570161   -0.32494953667858    4.18502755864604
H         4.68723262800364   -3.15128850957663    3.62447147536479
H         5.70113326694415   -1.83819814908498    3.88685851797311
H         4.88253962646929   -2.59711201326177    1.03848452226224
H         6.06712127124958   -1.45669033201260    1.60891877226704
H         1.74368908974443   -0.50922696486924    1.52579448415456
H         2.45626440099487   -2.09165347031695    1.31128953458716
H         3.12161922249206   -2.75487402975561   -0.47547763667198
H         3.56635882275364   -1.99703094887283   -1.91915183041736
H         1.77194748171875   -2.30752424561573   -1.41224096037032
