37
 energy: -49.572824722926 gnorm: 0.139594077401 xtb: 6.4.1 (79825abcba525fcdf90b791dcacef51065a7a4e7)
C         1.59792672146341    0.42204446200076   -2.27488843805247
C         1.94340251111828    0.45967205822937   -0.77958074106325
C         2.65620098682046    1.76822141999540   -0.33422807730447
C         4.17506144868322    1.81964603187304   -0.60311514027164
C         5.01417171979457    1.11947178614942    0.47949862326768
C         4.31325517935764    0.73520422122158    1.77471201539959
O         3.20336072667861    1.64777052216691    2.06127847926118
C         2.33736418725206    2.12559759296881    1.09271226170681
O         1.32514209366168    2.78026078469186    1.34440394625804
C         3.87077280598440   -0.77335471253904    1.93077356195292
C         3.69522868198992   -1.24761796878250    3.50584922222379
C         4.71114901166586   -2.37314421569872    3.26693238817149
C         5.12336735865324   -1.82442971861755    1.93513817405203
C         2.58162994976771   -0.90608270044782    1.04236736148662
N         2.81419243273477   -0.63489961745050   -0.36904430075326
C         3.10435903861791   -1.79643599209806   -1.20581609768760
H         0.83466967009260    1.19364126763283   -2.41661688706277
H         1.24846824863186   -0.54374787510314   -2.66498765647729
H         2.46689024562172    0.69193912151135   -2.88001965347622
H         1.03920526272019    0.37640832847874   -0.16969608814079
H         2.28346209197156    2.59686842507190   -0.95174982971907
H         4.44494914724614    2.88293798674627   -0.51776127453068
H         4.52736775510465    1.57369658473901   -1.60639605875578
H         5.86527981262881    1.79489506614324    0.65783442440113
H         5.45451834191352    0.21653691764858    0.04775388147844
H         4.98907941801297    1.01044695361892    2.59248872204647
H         2.65178896672527   -1.38539785183674    3.80176998133005
H         4.05441057849048   -0.37573780709255    4.07019744737602
H         4.11113570376420   -3.28527319398172    3.26544277642381
H         5.49984310153090   -2.34679301261369    4.02612383747728
H         5.12682741272589   -2.48811534589359    1.04199067813337
H         6.10049395564143   -1.34562530099715    1.99452923357759
H         1.85150793914945   -0.23141744422811    1.51203558914519
H         2.03649053305987   -1.85205422903337    1.12751902320271
H         3.95546801328140   -2.24259348465152   -0.67360789331555
H         3.31309789241108   -1.47089262725652   -2.22974593066108
H         2.20529544592109   -2.41596997290366   -1.20805119784079
