37
 energy: -49.571385840099 gnorm: 0.152831343899 xtb: 6.4.1 (79825abcba525fcdf90b791dcacef51065a7a4e7)
C         2.51635057356011    0.41245418625269   -2.31140338802974
C         2.15091562341466    0.42330418848624   -0.82041241526122
C         3.02950208680504    1.59420694938092   -0.29525083940649
C         4.55956652506592    1.40011168298249   -0.23946828319015
C         5.11391544155701    1.63341138519495    1.17639581322695
C         4.13404153515263    0.92144336452730    2.09806385250896
O         2.92213291879221    1.74070040898682    2.18088119247945
C         2.31142054632546    1.99606944874796    0.96506611257246
O         1.19260380970941    2.50549050174364    0.89250249575640
C         3.80294896624657   -0.60044460725537    1.83324200044691
C         3.89556315702573   -1.45405493002744    3.24723519221778
C         5.23977540308205   -1.94993724393089    2.69661838088926
C         5.10368605751647   -1.43355565146772    1.29679084097984
C         2.43785394642007   -0.99571916623593    1.16313365252906
N         2.47457235606784   -0.89486315797033   -0.28882649831533
C         1.54374862973865   -1.89427542785242   -0.80679635869824
H         2.49817777765279    1.37389515304201   -2.83419486666372
H         1.79880736535127   -0.18910519716306   -2.88613073755595
H         3.53742264223772    0.08035548905487   -2.51449650894803
H         1.09157352587911    0.69580134444841   -0.82251716695741
H         2.84252639815090    2.44504615456979   -0.96460575800539
H         4.99035143464269    2.15516904442800   -0.91402530178906
H         4.88169583818723    0.41068402363681   -0.56878437762010
H         5.11906486521615    2.68894854536924    1.48976467932793
H         6.15236903455543    1.29585433184581    1.11921703717124
H         4.46778017875254    1.16592019694417    3.11300488488126
H         3.13626939683332   -2.21685922048085    3.43938469095636
H         3.96475221534523   -0.80933406473567    4.13449132491772
H         5.35669356376022   -3.03395811815133    2.75341936201347
H         6.21670518334836   -1.68974813242402    3.11734898604169
H         4.81433228078038   -2.12832209113099    0.47717079258938
H         5.93721159558749   -0.79277823381596    1.01009093603288
H         1.64771060128297   -0.40293745371124    1.64596170656336
H         2.30037213397152   -2.06292212693999    1.36676696062353
H         1.90237136884820   -2.90154444302029   -0.55482923757018
H         1.55233636297534   -1.80974975309577   -1.89801785812356
H         0.54785120420516   -1.85709311334051   -0.36075993909547
