37
 energy: -49.569569350684 gnorm: 0.141869602332 xtb: 6.4.1 (79825abcba525fcdf90b791dcacef51065a7a4e7)
C         0.80465481471017    0.41053820154329   -1.21462617140630
C         2.03427981437943    0.37366448696435   -0.29627048726021
C         2.92594162306250    1.64771501288897   -0.31763867631233
C         4.40702098307898    1.33794678358700   -0.62149631465127
C         5.30168682033243    1.28308154702855    0.62868985743903
C         4.46430738444581    0.75726995360947    1.78577290051899
O         3.37093012446009    1.68884633262648    2.07465858193378
C         2.74803466792927    2.32509346302745    1.01466795581741
O         2.21082828376315    3.37375609002677    1.37277714028182
C         4.01494270079948   -0.75651346186647    1.73650774568600
C         2.79919057577999   -1.06392556605601    2.81541889742166
C         3.59709671382141   -2.24942093239255    3.37571456139191
C         4.84577175747504   -1.80428282492524    2.67760991597473
C         3.77946942651105   -1.41713314687836    0.33048301923328
N         2.82224809274248   -0.81748021188025   -0.58813119696952
C         2.97803877001163   -1.32659795717279   -1.94830721836624
H         0.15935398808948    1.22208929322824   -0.86393887645510
H         0.24242669647775   -0.49892333113910   -0.96197475932195
H         1.07886607920418    0.53974339614253   -2.26450174675361
H         1.72722436972007    0.19309820500429    0.73793335109924
H         2.53290255135889    2.24282730744756   -1.15327311231708
H         4.70662178374897    2.07401934273501   -1.38251601609809
H         4.34758412633278    0.40056630265699   -1.17734574308038
H         5.65305250245642    2.30989877719962    0.81463015839206
H         6.13310891127311    0.59440284732105    0.45531451235357
H         5.04015924417182    0.82103261122530    2.71614092900709
H         1.80541007072659   -1.28151718792964    2.41495289213001
H         2.69177862171841   -0.18048044944179    3.46013818778531
H         3.17670486227735   -3.18197130932192    2.99411536438177
H         3.57214228198269   -2.33453647549712    4.46715261716942
H         5.39502950726323   -2.56993445497450    2.08575136449598
H         5.57014211399994   -1.22354010319137    3.24820858600381
H         3.44686813398187   -2.45767777109120    0.45491312781391
H         4.75174160409847   -1.66829904773424   -0.10642934433164
H         2.15692604826425   -1.03410146437918   -2.61681918794443
H         2.99252658254846   -2.41757158946702   -1.86142035091345
H         3.91010267376574   -1.06012380550350   -2.45069261485743
