37
 energy: -49.576003926214 gnorm: 0.140420083188 xtb: 6.4.1 (79825abcba525fcdf90b791dcacef51065a7a4e7)
C         2.92159631595230    0.13065636029628   -2.28867291353545
C         2.29020573276144    0.44506292326546   -0.92514479967090
C         2.98870520350748    1.67565401053229   -0.27980291410317
C         4.50835512050037    1.47346271884759   -0.10185724551647
C         4.95649681474393    1.78035372781574    1.33737502809928
C         3.99460844267618    1.01087567208264    2.23135355318203
O         2.69011077044408    1.67799154171142    2.22899733700343
C         2.26307486344729    2.08054342918292    0.97521044765435
O         1.16789653977567    2.63848819685603    0.89899853252313
C         3.80411608925366   -0.52445199737109    1.91138868036760
C         4.24469030820276   -1.47267445123467    3.19332988069207
C         5.02699067044425   -2.38981000480641    2.24314399386501
C         4.95226521649073   -1.38856618007931    1.13111238317153
C         2.42088786482782   -0.87501483414392    1.25369805474779
N         2.39437363465471   -0.81562459155843   -0.20077030452843
C         1.59882343690362   -1.87565253823977   -0.81476629147660
H         3.12171610957115    1.04399993781759   -2.85767685620176
H         2.36433831627395   -0.54175287223398   -2.95529335084728
H         3.93714614142605   -0.21865535050157   -2.08677093844176
H         1.26969945037046    0.80301746654643   -1.08915781262929
H         2.80327953507635    2.53373097640674   -0.94029098779337
H         5.04832737785091    2.20128415644575   -0.72589277830581
H         4.71103109718825    0.47066357259250   -0.48198854084092
H         4.93980778896054    2.81930962646071    1.70162408686759
H         5.97130756909345    1.41315753422326    1.51323331790190
H         4.33102891951557    1.04236229607000    3.27398750614365
H         3.37990296370674   -1.80647028806565    3.77302119314120
H         4.81548088575244   -0.97396476504467    3.98904485792519
H         4.49334882801366   -3.31792478869878    2.02907206078611
H         6.06276169064908   -2.61604196374286    2.51719125967015
H         4.64442368197632   -1.72502599659174    0.11610922335886
H         5.83122027075439   -0.75810286205536    0.99878182286685
H         1.74964865629681   -0.19762367108323    1.80088972941466
H         2.04469276758797   -1.87144669085343    1.50843462189926
H         1.45724090991719   -2.64577021248771   -0.04433672441177
H         2.06194998756144   -2.36642690641697   -1.67653018311810
H         0.63079564151662   -1.48193022794525   -1.13106933909179
