37
 energy: -49.578786513277 gnorm: 0.147807792897 xtb: 6.4.1 (79825abcba525fcdf90b791dcacef51065a7a4e7)
C         2.05108267726850    0.49723262584189   -2.39241744081587
C         2.04665506028427    0.39266699330601   -0.86082973633225
C         2.53840435156165    1.75045777066641   -0.28350060841257
C         4.03946984594587    2.00993334108913   -0.53120336649609
C         4.82681456051896    0.95947629583649    0.27068870610821
C         4.34570890274505    0.89829280486772    1.71336581324559
O         3.29347569327873    1.85166984717730    2.07480846363522
C         2.23933172987772    1.92889318700402    1.18082507491739
O         1.18408800472125    2.30653640240688    1.69109209710046
C         3.83291291718259   -0.57025542604826    1.98959451671536
C         3.69919953135178   -1.12200252283867    3.54339648780351
C         4.81412207161758   -2.13496754327933    3.24871989267599
C         4.97738212723383   -1.72529913561503    1.81686607829368
C         2.62204696802807   -0.84193919656533    1.02587090947124
N         2.93173385468164   -0.66355464850928   -0.38550481804473
C         2.93274637873615   -1.95723624408119   -1.06369163259777
H         1.12279408347956    0.95388057249526   -2.74985673199514
H         2.00563313228375   -0.52541947888448   -2.79137919347670
H         2.97162997666796    0.92148916175534   -2.80073543170628
H         1.03421949264826    0.23646571963946   -0.47737155075277
H         1.98590880565247    2.58693203609884   -0.73292549399788
H         4.34314845269726    2.97669231299149   -0.10240176288838
H         4.22846378758293    1.93749325217646   -1.60368515948986
H         5.86132209921073    1.33640062594761    0.28105541127243
H         4.98989244733483    0.01401519229411   -0.25381957847497
H         5.18085638474136    1.19144858002943    2.35977440435332
H         2.70737925574485   -1.49435949686476    3.81351062855953
H         3.86575903957716   -0.30570006674732    4.26004409315110
H         4.50549283819782   -3.17910361268794    3.32949938487100
H         5.70836983111924   -2.04737674459185    3.87462180651305
H         4.73363571539920   -2.54038560921665    1.09963197153063
H         5.91548525203474   -1.20498310387167    1.62505597155576
H         1.82255518054416   -0.17176313130489    1.37302580950222
H         2.28386954873233   -1.86659798451777    1.21295466870213
H         1.98393602998299   -2.50511324152171   -1.14292720145807
H         3.67386763084416   -2.59820543560960   -0.57596170657406
H         3.40264904828670   -1.85333190986432   -2.04376206969879
