37
 energy: -49.571919896716 gnorm: 0.140122150220 xtb: 6.4.1 (79825abcba525fcdf90b791dcacef51065a7a4e7)
C         1.68392866791041    0.40944861876610   -2.25286388167707
C         2.08426004483597    0.41718251994535   -0.77084180141433
C         2.86564661823555    1.70051487420093   -0.36932566929127
C         4.39978483749540    1.54545219177290   -0.43457394205196
C         5.08372452675917    1.60524942124103    0.94203543549178
C         4.22009558305873    0.97443530334216    2.02496751526535
O         2.90940124712629    1.62862693479861    2.05458120214998
C         2.26949217512745    2.14302256878008    0.93999484029113
O         1.42415011434448    3.03330849322572    1.03650360654674
C         3.88784324701807   -0.56906994427209    1.96932727035916
C         3.84608948397223   -1.34402000834491    3.43025633414464
C         4.78991471713816   -2.39212020377305    2.82472795784374
C         5.13050928450691   -1.57211415210832    1.61796666696969
C         2.60574415126250   -0.95100358454409    1.14523977703872
N         2.76515569131280   -0.77936247760264   -0.29171385314096
C         2.59189798990553   -1.97748011007079   -1.10905488244142
H         1.33811500403244    1.39141476159849   -2.59074745737884
H         1.06123815382075   -0.46977421005454   -2.46798526206152
H         2.54584487730829    0.12944970501720   -2.86345833038441
H         1.13922397110162    0.53062997757270   -0.23186007124411
H         2.58522668965378    2.44590056742556   -1.12608725046876
H         4.71220349566058    2.28192023629217   -1.19003659640654
H         4.57469530075076    0.54778840669710   -0.84109181933375
H         5.53179755836459    2.56250204897366    1.25071521628578
H         5.96543594120227    0.95954381350301    0.90668995848989
H         4.61700551810196    1.13826864734973    3.03337062597735
H         2.87111783511121   -1.63934591581571    3.82715899113751
H         4.35482195913264   -0.81177871628616    4.24609089906369
H         4.20464788419398   -3.29014027126419    2.61731494993412
H         5.56565174523244   -2.67201033694673    3.54514310726083
H         4.97992754957827   -2.08534866495422    0.64220106411414
H         6.14719217574696   -1.18068466546639    1.64435241656441
H         1.71320322652814   -0.53752278046252    1.63640564542319
H         2.43806528159601   -2.01380510462389    1.34926589146182
H         2.92993321214616   -2.86220172699466   -0.55255833070764
H         3.17050287804571   -1.71633714446973   -2.00068453280908
H         1.55986246096846   -2.16778791944675   -1.41043221101613
