37
 energy: -49.572160633993 gnorm: 0.158421355375 xtb: 6.4.1 (79825abcba525fcdf90b791dcacef51065a7a4e7)
C         2.21290662038153    0.33991707671432   -2.39063574439211
C         2.03357052467280    0.48389747220593   -0.87280086926853
C         2.76887600447166    1.74559017664016   -0.33784338706916
C         4.27179143031616    1.41613724379934   -0.45862357140928
C         5.08480513797952    1.51362591340257    0.84364647500204
C         4.27666279362843    0.94086746137286    1.99923162132153
O         3.11941662401352    1.82465033479332    2.16193521761209
C         2.31143931956895    2.05649605719564    1.06202181535648
O         1.26413410998700    2.64349358537869    1.33608728183639
C         3.78483505885672   -0.55797270332640    1.91274706044473
C         3.89423208422064   -1.27367878241219    3.40016153751558
C         4.78254946143387   -2.32871880031777    2.72653886459904
C         5.05469814198842   -1.50422890526741    1.50553972035205
C         2.41939152981311   -0.87480611129574    1.20285117057668
N         2.60053921896009   -0.69551415400269   -0.23058817891357
C         2.46871738915307   -1.94887993299339   -0.96899706778010
H         1.70474136699587    1.22814188992929   -2.77901014440499
H         1.46417332956647   -0.40819706879465   -2.68521537540723
H         3.27091372350334    0.27227019447733   -2.65553081375936
H         0.98924182860251    0.57473932738823   -0.56040665579504
H         2.51856916269942    2.52540855039342   -1.07006810526776
H         4.81136336449033    2.01306348456829   -1.20912714688480
H         4.35163684975770    0.36418614266410   -0.73827885078348
H         5.35935246459667    2.55800253048777    1.05878946534492
H         6.08865325105223    1.08172796218242    0.80686100380124
H         4.79336712763288    1.06547398379512    2.95774377764187
H         2.99161708176625   -1.74732277792863    3.79546693144819
H         4.47712140514277   -0.64000526307732    4.08307696329502
H         4.23534832584381   -3.26615951203581    2.60917918920714
H         5.70771448613872   -2.57485562735814    3.25813152089115
H         4.92297631950717   -1.92506606403982    0.48389962239810
H         6.00099869240320   -0.99042032871747    1.67309084468920
H         1.69167602311889   -0.16414459327138    1.62025978331348
H         2.12421926678588   -1.89447150193766    1.47200866345283
H         2.56478912443491   -2.85703434187113   -0.35849370627209
H         3.12453025937038   -2.04681735868223   -1.83980154265315
H         1.47277374039794   -2.20260769862253   -1.33759055580706
