37
 energy: -49.582122570990 gnorm: 0.139790623605 xtb: 6.4.1 (79825abcba525fcdf90b791dcacef51065a7a4e7)
C         1.98783144420496    0.40449118460920   -2.28594852790518
C         2.08544950477462    0.47045261275471   -0.75531653429840
C         2.89253842923780    1.72160859264254   -0.30594107377867
C         4.41585886990644    1.49659923002170   -0.40961098064538
C         5.15283852349284    1.65418670639937    0.93144448454857
C         4.29647530032758    1.01498677839936    2.01522894912869
O         3.03975271364294    1.75746539322415    2.14226093735734
C         2.27414841744069    2.04968771325301    1.02653453159162
O         1.16131416354480    2.55229618473946    1.18625555251393
C         3.96735610860025   -0.51963462522483    1.83491376312557
C         3.74591612316513   -1.23213451904797    3.31136658928723
C         4.78066081073835   -2.29626594668767    2.92032638862661
C         5.16723625262342   -1.61394250157876    1.64373658239504
C         2.68407780077171   -0.96247984168480    1.04380285764071
N         2.73633701491982   -0.78461248877570   -0.40026799494779
C         2.23935626992711   -1.99018924669493   -1.05840573226206
H         1.62363287007435    1.38065104877836   -2.62133074999816
H         1.13409857228502   -0.21296791635092   -2.59729706910222
H         2.95206435483713    0.27796401889513   -2.78431615926415
H         1.07724638620951    0.50149279501054   -0.33219978293233
H         2.58127271325891    2.48666140166941   -1.03032433228682
H         4.82123086194082    2.20718771314538   -1.14544518386146
H         4.59821481176544    0.49343007687095   -0.79894558816575
H         5.38811964924647    2.68952531664865    1.22316695287991
H         6.08367521421414    1.09212757688051    0.81641130953807
H         4.86476493712938    1.20412754940303    2.93312237553330
H         2.76971652420651   -1.67208212968775    3.53227215847727
H         4.13432444837595   -0.59786082588066    4.12038538948248
H         4.21657738156338   -3.22491611116395    2.81347968590992
H         5.61365113717508   -2.47490967804856    3.60830745067041
H         5.21057141087309   -2.22978427782259    0.71795907623772
H         6.10586728243694   -1.06088788316008    1.61805131175789
H         1.81121222594677   -0.45776922213629    1.48222328326129
H         2.51026290072801   -2.03397085521258    1.18866594740697
H         2.81631836568747   -2.86378861695859   -0.72579868877244
H         2.45989668925337   -2.01520157753457   -2.13018882706116
H         1.17076879125998   -2.14548469219038   -0.89670595400856
