37
 energy: -49.584466009085 gnorm: 0.134135558537 xtb: 6.4.1 (79825abcba525fcdf90b791dcacef51065a7a4e7)
C         2.59993536623833    0.61771542814733   -2.43934286234131
C         2.17622524003513    0.47962348856751   -0.97029052007113
C         2.62950609511369    1.80886904650386   -0.30218518506943
C         4.14819027109316    2.08059723080719   -0.34273137562275
C         4.91864763411938    0.92691046746496    0.32195268668193
C         4.34230681603718    0.73237212058254    1.71712629507927
O         3.23348544883645    1.60130073976090    2.11991846301059
C         2.29152993781574    1.92844459163135    1.15966540143073
O         1.22030591437174    2.41964277121454    1.51705817349035
C         3.77821219254373   -0.72949352984809    1.91872489910197
C         3.75824333089741   -1.15777028212429    3.51646860945717
C         5.08776545624728   -1.90200417534178    3.33080350285421
C         4.96316054222444   -1.85343357349233    1.83855623681514
C         2.48227385844037   -0.90167428455356    1.04713487249539
N         2.65152536138241   -0.77169569788175   -0.39306229752162
C         2.16467178687425   -1.95371988916516   -1.09970423357196
H         2.56062036340755    1.68668595280900   -2.67121836797009
H         2.05359938835140    0.00464419228593   -3.16921553196226
H         3.65979478311473    0.39285481668501   -2.58168132491831
H         1.08531382063900    0.43502717863488   -0.90404685199103
H         2.01090497602899    2.61817977915627   -0.71361200609032
H         4.40283896222946    3.02942090994715    0.15285119643335
H         4.46268620069031    2.16663220174637   -1.38430411353799
H         5.98031342613992    1.21591955803558    0.28042267127511
H         4.70021780900989    0.00029786742260   -0.21589259904968
H         5.05278304817340    0.94533339516629    2.52405052514470
H         2.95528616347541   -1.87204940492796    3.71742619082760
H         3.86782874320944   -0.35591817279622    4.25990642622382
H         5.08869100044172   -2.94020118820158    3.66865489975907
H         5.94700287174688   -1.38186375457299    3.76700232827786
H         4.57821608659633   -2.73754671185798    1.28325023124491
H         5.86030604267958   -1.50671498680921    1.32623453535049
H         1.70218816198128   -0.19651308899322    1.36815444966093
H         2.08165270881530   -1.84324462478624    1.43731162397322
H         2.58383288877358   -2.76090770998751   -0.48371693220911
H         2.56768281142494   -2.14566158321505   -2.09906561940421
H         1.07601273228745   -1.93771896252290   -1.18160731553668
