37
 energy: -49.578114481277 gnorm: 0.136360031980 xtb: 6.4.1 (79825abcba525fcdf90b791dcacef51065a7a4e7)
C         1.93913954039843    0.48097126953439   -2.35484950986805
C         1.97282529295549    0.41712333686858   -0.82138833516493
C         2.63062924705287    1.74357158328459   -0.34541449297513
C         4.15606410061989    1.84457150955103   -0.55690770525130
C         4.98193615332767    1.03012439061752    0.45354459135402
C         4.35706672435378    0.88771901870228    1.83404530719649
O         3.30296099381158    1.87623288470642    2.07584014631848
C         2.36933267133221    2.12984906724420    1.08568549652839
O         1.21519334430333    2.44089039232602    1.38189806157193
C         3.87807231038065   -0.61448569723337    1.93324853224086
C         3.66723014505690   -1.13283845052964    3.48999537312595
C         4.68394876649486   -2.22801111342496    3.13947463390108
C         5.07363078582672   -1.72010934138823    1.78490048883103
C         2.54700807797526   -0.91708807242158    1.15512809345358
N         2.70836131976918   -0.71808588690608   -0.27807520599534
C         2.90014010440059   -1.93613217381684   -1.06110430731253
H         1.28440231433650   -0.27876154724854   -2.79318170887226
H         2.96173252050551    0.33274476938962   -2.72819381169601
H         1.69365952469246    1.50144162325082   -2.65899477541943
H         0.98993855288358    0.45029370708267   -0.34253743626617
H         2.11766605238736    2.58065901979799   -0.83844253259384
H         4.36532492409791    2.90469059646419   -0.34937008963483
H         4.47300971868035    1.57298004628123   -1.56535553788803
H         5.95869094044356    1.53148641929352    0.53703987267645
H         5.06524130485985    0.00767356987402    0.07505466617105
H         5.06810217689745    0.93311242602838    2.66688606588736
H         2.68815678761227   -1.48331918561732    3.82748232871755
H         3.97993177053096   -0.36477798372894    4.21108925008565
H         4.28019482419494   -3.23527622705603    3.01948626483313
H         5.56081992909017   -2.20385909450770    3.79492719245421
H         4.93012794798827   -2.48272171636536    0.98738413248673
H         6.02316857662324   -1.20778141125477    1.63174880453497
H         1.73035926523687   -0.28815857872294    1.53771403736431
H         2.23721696293105   -1.94237779273743    1.38338316720550
H         2.00946787533017   -2.31729079122176   -1.57889736041144
H         3.35530566876280   -2.69244283947517   -0.41395581105113
H         3.60021864663667   -1.60029988764443   -1.82873012808229
