37
 energy: -49.577479420812 gnorm: 0.150856568840 xtb: 6.4.1 (79825abcba525fcdf90b791dcacef51065a7a4e7)
C         2.31899902327588    0.45944731594939   -2.41729868881827
C         2.18531229822557    0.42707062176811   -0.88831403269430
C         2.60753058277385    1.75938250149878   -0.20611255416671
C         4.10243760067310    2.12074820142245   -0.33475825841060
C         4.95859500204038    1.06481359518871    0.38524121770098
C         4.38829847861971    0.83645873166442    1.77777103472597
O         3.26038917816978    1.68119476346785    2.17902530111822
C         2.25620408932981    1.89731403804568    1.25096601915227
O         1.15633729917869    2.33155133554801    1.59485145650511
C         3.83152476689691   -0.64042239189850    1.84648175701639
C         3.66536376180851   -1.08272962072465    3.43183963089807
C         5.00511850666617   -1.82522637231452    3.33314563412278
C         5.02956655741467   -1.75324489751334    1.83684741522968
C         2.57253895970092   -1.01621065567151    0.98479181586012
N         2.77374031390391   -0.83082410604030   -0.44519360338306
C         2.50496736565121   -2.05344392812584   -1.19786373219226
H         2.41817151322587    1.47284205565689   -2.81880314213781
H         1.39087794920459    0.06983224038920   -2.85757681968566
H         3.13931245017878   -0.18762719813142   -2.73746267277730
H         1.10046278170264    0.37191343376666   -0.75976826138137
H         2.10157737073225    2.53931355450605   -0.79146899218527
H         4.15547040039281    3.11990287964159    0.12305381019731
H         4.36654508290342    2.13100283540254   -1.39368487124442
H         6.01802393829270    1.36464008378499    0.37525753046223
H         4.71752821167817    0.16184074265966   -0.18232102467718
H         5.15362749170487    1.11274229664512    2.51206975588270
H         2.76056392649209   -1.69351668377070    3.49180015639854
H         3.53205100469787   -0.16106072678560    4.01530319715673
H         5.11586335890350   -2.73970559100675    3.91920092111613
H         5.83372871628057   -1.15830229101909    3.59337976620345
H         4.65566269101766   -2.63249704520839    1.26648384076774
H         5.95239190843406   -1.46210321827873    1.33566156224592
H         1.72640669271912   -0.42353045093183    1.36112938737035
H         2.29412750371473   -2.01854932936177    1.32698207992521
H         1.43609909362774   -2.27118900432360   -1.06826333318891
H         3.04836761507648   -2.90422110890144   -0.77492514139346
H         2.82361452529521   -1.98811178952965   -2.24013931418666
