37
 energy: -49.577902174599 gnorm: 0.151381173321 xtb: 6.4.1 (79825abcba525fcdf90b791dcacef51065a7a4e7)
C         2.42679535266364    0.52494478700364   -2.45132731358816
C         2.09283474458287    0.34607137951331   -0.96364821898764
C         2.58264649597182    1.65014628637974   -0.27213164075042
C         4.01883340295516    2.16431984527899   -0.50638489628720
C         4.89236892558188    1.21197789838531    0.32811083526926
C         4.34177271454412    0.85291053501626    1.70085909124071
O         3.25342488870175    1.71145287123988    2.17537716588532
C         2.28757619765421    1.83828157261551    1.19179185928105
O         1.21641189982426    2.32182879432346    1.55964416601728
C         3.85591613894585   -0.64285256810417    1.85096603572201
C         3.72015443692406   -1.09308937715080    3.43698631085760
C         4.92784718354320   -2.01098352878750    3.20260785325194
C         5.11336039887793   -1.68347536312149    1.75243177855212
C         2.50623095841572   -0.91947738417599    1.09558516620451
N         2.72416126043075   -0.81026954736578   -0.33978534166058
C         2.48505671959532   -2.13763362708162   -0.90057413852689
H         1.92081458417059    1.41101598790335   -2.84739700071163
H         1.99857858580222   -0.27048429987375   -3.07660839704953
H         3.50867716242259    0.50785926104142   -2.60418135369086
H         1.00916698546775    0.39214408761391   -0.82220460029818
H         1.85837614742100    2.39661091386805   -0.62589186392044
H         4.11966669370869    3.15116396512048   -0.03026961238249
H         4.26087739235681    2.15005209854632   -1.57052521587510
H         5.89961527366189    1.65159325353111    0.39577467454132
H         5.00937767946467    0.24071487560047   -0.16031229223944
H         5.12463489510255    0.99048717386911    2.45548164342536
H         2.78777597167307   -1.56694337391246    3.75550102196900
H         3.86326033359283   -0.30050949303974    4.18465829544567
H         4.56298303226420   -3.03429730446251    3.31077684745080
H         5.79185553390091   -1.88904169137091    3.86421511600855
H         5.04338303671143   -2.49044395899882    0.98947182274919
H         5.93640602884119   -1.00291981379471    1.53564293010447
H         1.80874619606380   -0.15023954792857    1.45700979958720
H         2.20663464329501   -1.93930552167235    1.35918059968280
H         1.42500947993294   -2.38177337968206   -1.05349304792533
H         3.04078376539913   -2.76499220103189   -0.19660583659613
H         3.05068706743563   -2.27249078976597   -1.82470537756896
