37
 energy: -49.568772498990 gnorm: 0.149973700182 xtb: 6.4.1 (79825abcba525fcdf90b791dcacef51065a7a4e7)
C         2.28454833450945    0.46353926503149   -2.38871546321251
C         2.03541164970115    0.40446245035464   -0.87505918130862
C         2.70258551112512    1.66900517021887   -0.26306828233771
C         4.23408370192736    1.63886775645548   -0.45144788801790
C         5.08665727132301    1.52155597525629    0.82360460150696
C         4.26890358792524    0.99359850076960    1.99367431884575
O         3.06651725888079    1.81162295181792    2.17218600936446
C         2.20507246007172    2.03021563889095    1.11080985204319
O         1.09965093166697    2.52180829855931    1.34082305351676
C         3.96560954089588   -0.54896651103085    1.83746342231636
C         3.75343303583586   -1.23173815947539    3.32924381819756
C         4.67691754166973   -2.35727916364610    2.84311778306515
C         5.22904030362481   -1.57644345654023    1.68979933011474
C         2.61431686535835   -0.86313855722478    1.09984858291163
N         2.69537223708741   -0.78527678539661   -0.35172850290382
C         2.47315107987398   -2.07160778555477   -1.00710684840472
H         2.69429182125215    1.46200845170194   -2.57086780391191
H         1.29345070524131    0.34560587006922   -2.84792203753692
H         2.94964118526749   -0.32332468138237   -2.75288734317476
H         0.98626105215555    0.31031181445960   -0.58029912760394
H         2.30112167593078    2.57193356727439   -0.74314157519204
H         4.54384642377650    2.54226999567501   -0.99791461065346
H         4.53197345072019    0.89207235776591   -1.18951414886246
H         5.48217885928400    2.52859834506344    1.02808833787054
H         5.92119231130553    0.82106486275903    0.73160720881783
H         4.79695225750309    1.19312842462776    2.93314657572094
H         2.78192476504848   -1.55787023721673    3.71020100915537
H         4.27152761309043   -0.69589721581552    4.13678828304678
H         4.15392086013398   -3.27218375372961    2.55777320873185
H         5.40936689335037   -2.77822463119575    3.53984389299782
H         5.01645365591560   -1.98831673996588    0.67818163433832
H         6.21779316307016   -1.12055176047914    1.73549291819950
H         1.79931622322070   -0.23901373124001    1.49365279582898
H         2.22832711923138   -1.86118720866417    1.33265910783845
H         2.81442741999826   -2.84716876043190   -0.30801872786527
H         3.06315474601224   -2.16448461817616   -1.92430489894193
H         1.44986863785641   -2.19135432720627   -1.36862655987912
