37
 energy: -49.576378618219 gnorm: 0.143645005077 xtb: 6.4.1 (79825abcba525fcdf90b791dcacef51065a7a4e7)
C         2.40402490352672    0.43568210660957   -2.47143883161097
C         2.13505412831446    0.33263482975141   -0.96354280403894
C         2.53468384828782    1.67846889948913   -0.29440247492388
C         3.99213402392070    2.17818894705934   -0.38384904939694
C         4.89603001679112    1.21789452634686    0.40811638911803
C         4.30783876618031    0.86851660824426    1.76770802921056
O         3.22103342048662    1.79403394770503    2.09791264681354
C         2.20093423300994    1.84706992753550    1.16358182728762
O         1.18463569556398    2.33519502184885    1.65895778136347
C         3.95286696678947   -0.66742890466059    1.87144950251796
C         3.74001918547239   -1.12145597508801    3.44788851083112
C         5.09302226987256   -1.84084341244981    3.35929351096309
C         5.12142330245666   -1.81117295278202    1.86162851535452
C         2.67154903600710   -0.97546737637590    1.01581627431371
N         2.74849612950298   -0.87943936470276   -0.43489602516574
C         2.29164676809041   -2.05135903471297   -1.17748836510694
H         2.29731202935079    1.45027208878979   -2.86796049704308
H         1.73877193935806   -0.15373226511863   -3.11725819442101
H         3.43456498756357    0.09912307714373   -2.60869654086918
H         1.05148770754997    0.27331869893278   -0.82631964330506
H         1.83266466623902    2.30233795570604   -0.86438468590431
H         4.03501706981383    3.11606939908441    0.18995904491299
H         4.35048038746892    2.23557417562038   -1.41315866727043
H         5.85440043753270    1.74913980218530    0.51623599589133
H         5.10791990149097    0.27060873613781   -0.09522480439578
H         5.00697723297711    0.99650388099332    2.60202233505716
H         2.87953067931893   -1.78283228276632    3.58002382222890
H         3.81430809977076   -0.28584189949146    4.15775176133142
H         5.02487516095321   -2.85904584312223    3.74738788609817
H         5.86612516741184   -1.21994943345835    3.82395143612037
H         4.82355280413629   -2.69906958733856    1.26069943246282
H         6.10403427066469   -1.49375922869401    1.51337349460197
H         1.94019561455744   -0.29476733340461    1.47473807065257
H         2.35339830297663   -2.00510312197913    1.21054751796339
H         1.19892982192684   -2.02952546558725   -1.28785833673959
H         2.65133093220467   -2.84311047593575   -0.51285338664737
H         2.76313914990467   -2.10831055570943   -2.16064356362024
