37
 energy: -49.582756572799 gnorm: 0.135251947151 xtb: 6.4.1 (79825abcba525fcdf90b791dcacef51065a7a4e7)
C         2.05989454624888    0.42847456502003   -2.42431049989942
C         2.04161288575814    0.51851703373195   -0.89190304024398
C         2.89547108665927    1.69659365123395   -0.34255452338888
C         4.41990141855051    1.45601868592984   -0.35340434161083
C         5.05318147903773    1.59566553767574    1.04153570424553
C         4.18056345553184    0.96393123856731    2.11669749574511
O         2.94918646641098    1.75457113411416    2.18992714332741
C         2.34493166566780    2.10951727263751    0.99607680143932
O         1.28287604887902    2.72293996935028    1.10687685215267
C         3.83819502213359   -0.57188086740734    1.97541430138204
C         3.80453964790306   -1.47492475912961    3.36104908460004
C         4.92475355240882   -2.33805452007665    2.76429743968063
C         5.10548953238113   -1.50524055830701    1.53204632686895
C         2.56542771208976   -0.89612519453329    1.11303353174828
N         2.64662342655671   -0.68019628595729   -0.32449574243205
C         2.37557829798286   -1.97737804544708   -0.93882829237605
H         1.70804518247136    1.31504346171030   -2.96116012968502
H         1.55107998784685   -0.49510189535357   -2.73280318780045
H         3.07152840912331    0.25679820016308   -2.80014115512573
H         1.06270214946725    0.77423019164769   -0.47619958444940
H         2.65755689658781    2.54141793637119   -1.00330563627665
H         4.87301001635163    2.08737437479357   -1.13237611184429
H         4.51772075826111    0.42081512213195   -0.68501925319735
H         5.04629751610602    2.68220214363373    1.21979417366293
H         6.03135011831566    1.12139114197351    0.92384985401476
H         4.71388396975045    1.19373019582082    3.04622284198961
H         2.81284485411069   -1.92634036233187    3.45096138793626
H         3.97531305933724   -0.92117138775301    4.29478845178256
H         4.54114598489224   -3.33991144645258    2.56150346805363
H         5.76242004938111   -2.45682205504454    3.45950497833666
H         5.01805641270810   -2.03396782550257    0.55685098222042
H         6.05861250234175   -0.97887630318304    1.48671825316863
H         1.74524172134986   -0.27773785473597    1.50511979600353
H         2.41243278351261   -1.97323334735130    1.23841500129186
H         2.84845677311466   -2.78043418410900   -0.35729983015224
H         2.64508496153351   -2.07395410559909   -1.99524767730578
H         1.32169930514748   -2.25124083475888   -0.85832404980935
