37
 energy: -49.576850231832 gnorm: 0.144264141820 xtb: 6.4.1 (79825abcba525fcdf90b791dcacef51065a7a4e7)
C         2.06535315066854    0.51245300130922   -2.42769170729541
C         2.08353329929646    0.43353169470095   -0.89467005569311
C         2.87602630073948    1.63030248278873   -0.29599097459938
C         4.39557108999068    1.37044398662697   -0.36905972041116
C         5.06727496968013    1.56949986836452    1.00046328334792
C         4.21584279041615    0.90933922542070    2.07553280883961
O         3.02414885482541    1.75476514399638    2.18454604960801
C         2.31101728953775    2.04848916461350    1.03495533326378
O         1.24054177528927    2.64217322767878    1.16966825949902
C         3.84800601703755   -0.61846029053545    1.91298849337736
C         3.79195603548675   -1.34132641042585    3.39990735044322
C         4.90740768535466   -2.24710745078992    2.86017313024526
C         5.11159130914796   -1.58396604390467    1.53230268445343
C         2.51507643395786   -0.88047888980836    1.12342116020597
N         2.66712065709130   -0.77256609502713   -0.32051299030578
C         2.41596845868632   -1.98139100148197   -1.10103549184764
H         1.67657449397992    1.49346565267212   -2.71833796036082
H         1.45427588918900   -0.28107923566287   -2.87929400457913
H         3.09235743362459    0.45485849874979   -2.79656784022035
H         1.12338844487257    0.53097116815922   -0.37979898448040
H         2.49266692282961    2.40882103106616   -0.96968803012407
H         4.78174712369107    1.99231939773530   -1.19055437380505
H         4.49379334193150    0.33143521890150   -0.68842887213969
H         5.17617363701179    2.62790275357403    1.28385289445006
H         6.01910860121965    1.04412002191974    0.88389225624671
H         4.74691745763573    1.16408002929047    2.99982849809868
H         2.81033576917511   -1.79716721222557    3.55466409530731
H         3.95529498998370   -0.66990121109264    4.25441548440937
H         4.71115030860404   -3.31665007248037    2.95794370348514
H         5.81276292729028   -2.16153731626775    3.47018464638557
H         5.05602481091980   -2.13116403101052    0.56499210418198
H         6.02743075031543   -0.99337764154882    1.53139916863152
H         1.84189044299000   -0.07680710496571    1.45473956541606
H         2.07080510683560   -1.83719837240936    1.41770119632394
H         2.73533849443024   -2.91552400048704   -0.61928152675251
H         2.77629717339032   -1.75886758529722   -2.11030713203493
H         1.33262664045947   -2.02691337429750   -1.22925761749757
