37
 energy: -49.585133938594 gnorm: 0.128896549315 xtb: 6.4.1 (79825abcba525fcdf90b791dcacef51065a7a4e7)
C         2.07810937332146    0.56953254213286   -2.36469303438008
C         2.08431330589606    0.50731197734179   -0.83080757141459
C         2.67202374393845    1.85184518851004   -0.31549308299256
C         4.19798350988864    1.90788511266731   -0.53952029470634
C         4.93980145163112    0.93757200131367    0.39568086887528
C         4.38990336226598    0.86307646142324    1.81292673346303
O         3.23402201505566    1.72169612957636    2.08398741213574
C         2.26987679643442    1.99222748419558    1.12814954199460
O         1.10517421486416    2.21850994436741    1.45798331183932
C         3.93705935852873   -0.64335735808125    1.95950578632401
C         3.64034803285647   -1.13897950737055    3.50964313776111
C         4.72987848656812   -2.20879151829791    3.35340499639645
C         5.15121669997069   -1.73804483350974    1.99489144635715
C         2.68641878768105   -0.89303652811431    1.04172035125832
N         2.85681846325141   -0.64480011851145   -0.38272729672305
C         2.61060530321073   -1.78834224841298   -1.25750780926908
H         1.57583395542389    1.49942254979648   -2.64935756462994
H         1.40525006768881   -0.19592155469951   -2.77505123467767
H         3.08479366743855    0.66213191908940   -2.77958653442148
H         1.05306885004754    0.42269937547806   -0.47606767223896
H         2.20735526663270    2.60596023390595   -0.96535227176885
H         4.42258222104544    2.96121515957550   -0.31420791322376
H         4.55403300124504    1.72956968752907   -1.55569736850213
H         6.03815739265343    1.01272262302860    0.37692270809030
H         4.76446980810163   -0.04955299384828   -0.04071702689530
H         5.04203720982100    1.16373149575900    2.64092655279845
H         2.61392545719623   -1.47639401974648    3.67675680532447
H         3.90665084299546   -0.29691798783090    4.16362385729250
H         4.28931122945878   -3.20770879319294    3.34551621817349
H         5.58813903092031   -2.17639435816488    4.03270145093450
H         5.10186627409961   -2.48232783356010    1.16917334010165
H         6.13705165000669   -1.27418469830860    2.01770785999897
H         1.90415477334427   -0.26180064564044    1.48719075642947
H         2.41150124508391   -1.94124730904947    1.19972175108181
H         3.05159398789869   -2.66159326588644   -0.75785772273988
H         3.16270948195081   -1.73858258538890   -2.20127030524606
H         1.56204632316693   -2.02734954719605   -1.44603438285326
