37
 energy: -49.569872555079 gnorm: 0.145013815041 xtb: 6.4.1 (79825abcba525fcdf90b791dcacef51065a7a4e7)
C         2.69389621123274    0.35930088647303   -2.37292836675534
C         2.21936278673393    0.40652327182131   -0.91371538014335
C         2.61838620318375    1.76177295003999   -0.26348412113874
C         4.09394716667917    2.16459945706386   -0.46923279075534
C         4.94556123566066    1.20117678432987    0.37514440154941
C         4.38183895258799    0.92469685107995    1.76161450976239
O         3.25325207767505    1.78440527835998    2.12761506301918
C         2.28900877775724    2.06257251458467    1.17407057268741
O         1.18481887744404    2.53135877310278    1.45251316752981
C         3.89078673405790   -0.56923465511934    1.91304873045777
C         3.78413170103557   -1.25260150362706    3.41579261493818
C         4.72206675523285   -2.38746031733687    2.98179030139848
C         5.00582446539058   -1.73851218824468    1.66154968628820
C         2.51827686316947   -0.78874715085569    1.18038063067870
N         2.63129034550664   -0.83499913993923   -0.27041127696709
C         2.21749426056801   -2.13615435523908   -0.78937018909533
H         2.61480216556311    1.34378568070730   -2.84467377404036
H         1.99832159920804   -0.16755245373291   -3.04050231820318
H         3.77574641131807    0.20576455744052   -2.36062941616976
H         1.12763923167590    0.41058241347305   -0.84598057325242
H         2.08960433519750    2.59909474285416   -0.73909448179592
H         4.29275246918201    3.18405261288461   -0.10604393370606
H         4.24589775714610    2.25428601733009   -1.54628934403116
H         6.00206522849295    1.51124479561377    0.38165606249482
H         4.98902717951336    0.26097682048692   -0.18139382369752
H         5.12254193305956    1.20355341478232    2.51980565862510
H         2.78498796594887   -1.51052263247572    3.77705058413378
H         4.19459119155113   -0.65164482086470    4.23923030949668
H         4.16385100032538   -3.31650701952880    2.85039449589318
H         5.57940394975413   -2.61815319225524    3.62277247080392
H         4.85364384125803   -2.38618071315540    0.76960261560577
H         6.04085185048355   -1.39752108097255    1.66069096520533
H         1.86938376522235    0.05124882089952    1.46705835866402
H         2.02963052982627   -1.68717650960314    1.57196635134814
H         2.98572275194177   -2.86213620669551   -0.49026502290225
H         2.36032535028307   -2.05394824412836   -1.87141645958461
H         1.17087035745662   -2.30846536416609   -0.53046863910041
