37
 energy: -49.578743476269 gnorm: 0.127202772696 xtb: 6.4.1 (79825abcba525fcdf90b791dcacef51065a7a4e7)
C         1.74164853626069    0.46836553140471   -2.38458189600527
C         1.87620524414033    0.41727721216182   -0.85618439456757
C         2.57726065738333    1.69489363485436   -0.31310092786675
C         4.07640096745554    1.98267886700984   -0.54034489918983
C         5.01071152415344    1.13516971685004    0.34010646974327
C         4.41035287886068    0.84930698461605    1.70918473759862
O         3.33832241169993    1.79652456741635    2.02587517508639
C         2.28866200746698    1.96513769933241    1.13921182317415
O         1.21408301172193    2.31979134306596    1.62503786498100
C         3.90416997522107   -0.63720570838318    1.88225928312116
C         3.71533188448608   -0.99988017871440    3.48519787284122
C         4.72646322776134   -2.15043578662280    3.38610246548043
C         5.09081785290045   -1.75732179839234    1.98703331401131
C         2.64197306627581   -1.00526835636128    1.02193351589874
N         2.69728654900842   -0.69745367956662   -0.40000142184818
C         3.07592010376155   -1.88597972867618   -1.15999674452191
H         1.16421731467554    1.30211138426271   -2.79622608255262
H         1.37842003317746   -0.51375221840540   -2.71709241021131
H         2.67918585097829    0.62310678396745   -2.92421459124054
H         0.89429526703236    0.38607776647565   -0.37520187940367
H         2.08368079096406    2.47297613469505   -0.91133984428297
H         4.19968311663927    3.04461539259503   -0.27994760684990
H         4.47107212810710    1.88246739338915   -1.55295331530334
H         5.97400219031879    1.63562223421146    0.52450719996420
H         5.27607046518168    0.22842300783476   -0.21034341955626
H         5.14674701879058    1.09926382810203    2.48151947510970
H         2.69712314350630   -1.32017758461354    3.72179745828434
H         3.94623936543707   -0.20289150553047    4.20572986502608
H         4.07836687228833   -3.02714148525469    3.32817411167026
H         5.45912989430703   -2.32664561397744    4.18061744921559
H         5.04520813727011   -2.57650474067294    1.23532719241629
H         6.05524470220288   -1.25962086349914    1.88838245985869
H         1.70413579654226   -0.60582335919483    1.43393416573918
H         2.46114956536488   -2.08534222155472    1.02769781097980
H         2.31307162320164   -2.67086369600920   -1.06668055302808
H         3.96679268242942   -2.27599362681013   -0.65778374107966
H         3.34405596750865   -1.63560339411348   -2.18837290778871
