37
 energy: -49.574821673467 gnorm: 0.140881124295 xtb: 6.4.1 (79825abcba525fcdf90b791dcacef51065a7a4e7)
C         1.04970855515768    0.65017454554333   -1.26802070248275
C         2.23388958388474    0.38248493793409   -0.32846118922532
C         3.01031598136466    1.72990436263518   -0.34703871923493
C         4.54252979426529    1.71304306146270   -0.53120830227921
C         5.34893307596383    1.04602892053463    0.59627052227680
C         4.41465240702812    0.63403333438540    1.72494345020931
O         3.41138507378901    1.63754339726440    2.08988936548656
C         2.67635046698514    2.18014753339002    1.04984408909781
O         1.74218855304136    2.91944491460371    1.36178497016007
C         3.88834109966162   -0.85536055470762    1.70048614036768
C         2.70983521291054   -1.21960224673356    2.80278218044218
C         3.78260035443199   -1.83232172388847    3.71367981199289
C         4.79786707011457   -1.86287597403926    2.61232277229829
C         3.71479788572359   -1.43246275179456    0.24941502069752
N         3.14877847196347   -0.63567660368060   -0.82968752724579
C         2.68184863909290   -1.53014797584148   -1.88583522761335
H         0.43750326702834    1.45749616785287   -0.85395983624115
H         0.32009150426368   -0.16478753257479   -1.37073021673884
H         1.44121272331634    0.99262758214815   -2.22904876506089
H         1.90572762332167    0.12996908473579    0.68396673163897
H         2.56332931979197    2.37091278822978   -1.11920088151998
H         4.79494401252968    2.78248655190753   -0.58858532891382
H         4.74974815697839    1.24251073911349   -1.49393535407995
H         6.11390519715734    1.75236079875891    0.95445788934663
H         5.88483796511001    0.14587019752415    0.28302896192244
H         5.06338661512710    0.59153114557455    2.60732273931442
H         1.92559498528038   -1.80430544718264    2.31451149364186
H         2.26127815324435   -0.27105503599156    3.12947824198411
H         3.49984970184319   -2.79213052636246    4.15050539741395
H         4.03479127964155   -1.07567634776866    4.46400768875481
H         4.80705032338503   -2.86351441358543    2.12565920987937
H         5.84537238098179   -1.59472741554159    2.74791897905858
H         3.24703262426796   -2.42176544536371    0.35578907257898
H         4.70653784187640   -1.62333924616438   -0.17403268170104
H         1.73368796039576   -2.05118751264783   -1.69557831163282
H         3.47595850603929   -2.25993738554026   -2.07232821846820
H         2.39399637748493   -0.92563322996773   -2.74830012217267
