37
 energy: -49.583053617577 gnorm: 0.144037290374 xtb: 6.4.1 (79825abcba525fcdf90b791dcacef51065a7a4e7)
C         2.31694593556584    0.52585002393801   -2.42768427111476
C         2.14149410563082    0.46852951694084   -0.90366146912663
C         2.67287236291138    1.78228095127343   -0.26302395436025
C         4.18386434658023    1.99695339314595   -0.49259056743870
C         4.92709944257576    1.13877255169968    0.54545077606631
C         4.25036763573520    0.80786613336754    1.86797046245419
O         3.16279046257363    1.72791590440754    2.21067679479205
C         2.28294167873381    1.99324364859549    1.17537173831685
O         1.20213444083589    2.47503706035813    1.51633654749064
C         3.74524870946749   -0.68774583549804    1.93038568793857
C         3.64513069162018   -1.34901499701876    3.44343036881814
C         4.89415215347926   -2.20755605080812    3.20086625952533
C         4.98606193804789   -1.74200828465035    1.77977327654750
C         2.46888835469260   -0.94273682919245    1.05024054472091
N         2.83487415494357   -0.68035715604488   -0.33428817640999
C         2.63650359478399   -1.86880514578560   -1.15999452273030
H         2.11731886462616    1.47319087082473   -2.93827633965720
H         1.76012540962865   -0.27996304764868   -2.92534848018238
H         3.38644081881270    0.30457940078641   -2.46435222030421
H         1.05899312818748    0.46681174171945   -0.74664716685385
H         2.15584994329780    2.60159817562290   -0.78103010139660
H         4.37701044674441    3.07955339503271   -0.45535826141121
H         4.41123938697480    1.86255705708823   -1.55156256446590
H         5.85057061859375    1.66367852918132    0.83538173945609
H         5.23894682542749    0.20358954619257    0.07239263202310
H         5.01247715880022    0.94847830694413    2.64300143134051
H         2.67153178310216   -1.82796342337210    3.57771516029960
H         3.74771179583434   -0.60219250127475    4.24306081045783
H         4.67725277931130   -3.27483585939078    3.27745564190924
H         5.70246578117419   -1.93031764209820    3.88560880537543
H         4.87424320335691   -2.51073722373002    0.98305787503441
H         5.84997708539442   -1.09546187723574    1.62750466240945
H         1.67984133379416   -0.24245332650582    1.35983289934728
H         2.17061459502749   -1.99088619188664    1.15843303367245
H         2.91676858812518   -2.79365153599893   -0.63769264121953
H         3.30259218942464   -1.81683410842375   -2.02694763300940
H         1.59702610501743   -1.98707902901382   -1.47246937478550
