37
 energy: -49.571844719789 gnorm: 0.144600135731 xtb: 6.4.1 (79825abcba525fcdf90b791dcacef51065a7a4e7)
C         1.45039098367930    0.44668004621978   -2.13178000262443
C         1.92291088956836    0.37765320313150   -0.67278215762201
C         2.62104160285599    1.72574763567882   -0.33517732312627
C         4.12611395371912    1.81047753515919   -0.66602458986732
C         5.06129935506770    0.99110146107350    0.23976440612031
C         4.41277770093447    0.79705608203831    1.60295527554323
O         3.35556476283074    1.71840926457338    2.02742249361933
C         2.36653862690766    2.04158151464585    1.11430899531442
O         1.38471138137008    2.63923672140399    1.55629281022875
C         3.84090575502505   -0.64342617203300    1.90933618856978
C         3.47674784102290   -1.07584104281613    3.46401013926744
C         4.55755190829591   -2.16565339452667    3.45150794763473
C         5.13618487014503   -1.60113339194650    2.19008476025340
C         2.75339147807242   -1.25118191295181    0.95188266275918
N         2.88643316914766   -0.67600957328050   -0.37897613573504
C         3.19348163422514   -1.67742064194723   -1.39703682230509
H         0.45184812474573    0.87527290438898   -2.26304396634508
H         1.40190446550296   -0.58031417011447   -2.51905949742534
H         2.14237101714660    0.97182683906985   -2.79473475391571
H         1.07003437344889    0.46542006755469    0.00645523295489
H         2.03426366161571    2.48985057485956   -0.86315612098451
H         4.41142275528161    2.86635857515549   -0.54590572251561
H         4.28544777591518    1.73649957753443   -1.74320770705472
H         5.92890507244479    1.64712457265967    0.41087622702300
H         5.25572516589264    0.03015178692049   -0.24435785889640
H         5.15362144322935    0.99242056938647    2.38668926813232
H         2.50127615815908   -1.53492886252405    3.64570271972100
H         3.51916693543446   -0.23228557629045    4.16706799911656
H         4.13589417182794   -3.16578670286782    3.33345888930195
H         5.17421785907424   -2.16480960571674    4.35639843943168
H         5.43617893485318   -2.35466764573860    1.42824965621251
H         5.92801279771589   -0.90827842155788    2.47384150631891
H         1.73207125780238   -1.10905332453231    1.33338504265551
H         3.01693143385240   -2.31288615952762    0.90068972842107
H         2.29832897882896   -2.23917364616651   -1.69674309096282
H         4.03897838859614   -2.29377366978244   -1.07574742447250
H         3.65783135679126   -1.14093913487663   -2.22692212775731
