37
 energy: -49.571868988899 gnorm: 0.138160076011 xtb: 6.4.1 (79825abcba525fcdf90b791dcacef51065a7a4e7)
C         0.83420166952873    0.30508677760911   -1.10328231975807
C         2.17523671187542    0.27468590963183   -0.35667984640058
C         2.95298192515746    1.61212878764302   -0.19830995095328
C         4.43462410310346    1.66706724772214   -0.62679574597243
C         5.35079786268237    1.19452773848238    0.51501625378950
C         4.63382093815675    0.63542946955977    1.73562122754668
O         3.59884646224944    1.54469328736875    2.23445030218118
C         2.85186759083059    2.11364258515230    1.21724406912159
O         2.04629969765720    2.98615472198571    1.54329486779950
C         3.98812236167323   -0.79833600394186    1.58302438732122
C         2.68575999283729   -0.94881152620176    2.59189210116820
C         3.57123621401290   -1.59980028414994    3.66340047585783
C         4.62774682124274   -1.87271574939107    2.63676038446849
C         3.84277691037016   -1.44475084835186    0.15831596348323
N         3.17292715879176   -0.65754998801788   -0.86702520993066
C         2.73421778935556   -1.37648566385969   -2.06043042803429
H         0.17032675991012    0.94457041020195   -0.51307837448115
H         0.47962650741126   -0.73475678960202   -1.11071709482542
H         0.89126084807229    0.66029626940387   -2.13512289950317
H         1.88361191006190   -0.02194322741541    0.65496778333453
H         2.38839489336204    2.27788570159171   -0.86534253539395
H         4.65796213057819    2.74374125641033   -0.66689110886404
H         4.53711940886053    1.08487534008384   -1.54425461236968
H         5.87254546699881    2.05059113834574    0.97034048216932
H         6.06485605162050    0.43947458696414    0.17499319081757
H         5.34250533407353    0.59040840405793    2.57048362656004
H         2.01062444834039   -1.73938394324547    2.25350463553318
H         2.08483441686877   -0.06051591771476    2.83167307306209
H         3.18233927737343   -2.51197550009752    4.12022977408923
H         3.84920229599239   -0.85998387613478    4.42136548068435
H         4.63360078009451   -2.88827778868802    2.18200494158792
H         5.68253060463974   -1.69168591058838    2.84222746927016
H         3.21519600653130   -2.32235767836079    0.36994784617106
H         4.81131601675784   -1.88377764150511   -0.10336586376300
H         1.83393484161696   -1.98097877773308   -1.88502448379139
H         3.50988342007491   -2.08118507028193   -2.37622191981401
H         2.55867659097388   -0.69245929988416   -2.89315841848707
