37
 energy: -49.583251144002 gnorm: 0.140424295058 xtb: 6.4.1 (79825abcba525fcdf90b791dcacef51065a7a4e7)
C         2.26676644721064    0.41483181356908   -2.45418542938260
C         2.16884227045747    0.40307112605797   -0.92219749174820
C         2.85212986067471    1.65393521824252   -0.29996021472789
C         4.38480934725060    1.48163939955635   -0.35554453245904
C         5.06935928916102    1.67677709261518    1.00816925038531
C         4.21724875186200    1.04511366920246    2.09969676055121
O         2.91406702803770    1.71027165474210    2.17745015218241
C         2.22394694815921    2.01982322136311    1.01801003927091
O         1.09517312568851    2.49285906122193    1.15451256417849
C         3.90540735764310   -0.48947158461991    1.89065365201167
C         3.92034227211047   -1.33224836247366    3.31406821099025
C         4.87277785674022   -2.35886869127782    2.68565603414078
C         5.15090253656535   -1.47699063960860    1.50683239902070
C         2.58347519440484   -0.84295053409389    1.11843630059605
N         2.74554316049733   -0.79646184893472   -0.32768999443361
C         2.14170398324224   -2.01546089251745   -0.85963929727389
H         2.43831971292281    1.40894319106724   -2.87882876088669
H         1.26464277349453    0.04712053490706   -2.71416626503721
H         3.07716473905384   -0.25545550660451   -2.75099184410470
H         1.10243360333140    0.52755488458908   -0.71305359624413
H         2.68210219632274    2.53113227065604   -0.93913092164652
H         4.93745928241157    2.21388646173753   -0.96308607140445
H         4.59571191090548    0.46033728294027   -0.67748487568288
H         5.10510124103332    2.71462256241828    1.37420827201108
H         6.06616247226236    1.23854629396209    0.90848354638722
H         4.70541614285505    1.13450638129590    3.07691590682932
H         2.92341862456281   -1.69477165248625    3.57871693286741
H         4.31083958003520   -0.78985963122577    4.18642243307743
H         4.41873601919696   -3.25042465669101    2.24865324906275
H         5.70780187096407   -2.58458433152520    3.35714077464722
H         5.09347318878978   -1.95202147713466    0.50221773831149
H         6.04486630755097   -0.85655806939910    1.56556545312201
H         1.81353809938921   -0.14912394489968    1.48537110173766
H         2.25402602354996   -1.83040058572603    1.45857683145568
H         2.42301538600028   -2.91759820506169   -0.29954936364707
H         2.44650793405795   -2.17338915775261   -1.89893517204030
H         1.06370463243603   -1.95637407299216   -0.69663976839317
