37
 energy: -49.557119857954 gnorm: 0.165923100977 xtb: 6.4.1 (79825abcba525fcdf90b791dcacef51065a7a4e7)
C         0.77048392508298    0.41482619028254   -0.71874358993300
C         2.21085948527749    0.32807884113262   -0.19480884027225
C         3.02831190179842    1.63196368713986   -0.41925924859064
C         4.53094785278040    1.39829162410967   -0.68263059034597
C         5.29687093043585    1.25978696229331    0.64423824852515
C         4.39677364642191    0.72608729821252    1.74945897073203
O         3.37211975900519    1.72706933859112    2.05748927671460
C         2.87837345346383    2.32279948919611    0.90957400195137
O         2.15703734980979    3.28898448052708    1.15994773494088
C         3.96003862663164   -0.79103846996071    1.69040142435075
C         2.71556266443173   -1.08010255099381    2.74127069492935
C         3.57793010198997   -2.20512586721806    3.33002331136392
C         4.84363691697719   -1.77124807964017    2.65591373481493
C         3.74837184259375   -1.49483333457423    0.30164604381218
N         2.79201653043474   -0.93213148756525   -0.64093528012924
C         2.89021654269724   -1.35528143080691   -2.03551453523953
H         0.35504392905769    1.36557047527164   -0.37016816389503
H         0.06057626385542   -0.32045823387434   -0.31570340270614
H         0.83885151489506    0.50793692561432   -1.80538096809125
H         2.20332642338405    0.13418110133365    0.88167234325248
H         2.50440636538065    2.30898217756556   -1.10780280175217
H         4.83461878024007    2.26712782252177   -1.28564142445211
H         4.60875246539865    0.54209385497395   -1.35498117819281
H         5.60898601631617    2.29684034166202    0.84295846140107
H         6.21430208810015    0.74659495494185    0.34331620777537
H         5.02074052488080    0.85240743459260    2.64162726496785
H         1.76325754975456   -1.51680820831142    2.42866558161376
H         2.53922502333423   -0.20939097486006    3.38814158415685
H         3.16724745940466   -3.16168826712937    3.00089475806778
H         3.63416756780330   -2.15261805389306    4.42235324685893
H         5.44391850870521   -2.41322733211357    1.97347128874278
H         5.55153875612525   -1.21205188113471    3.26724994060906
H         3.46725694682788   -2.52004765760733    0.58226962734273
H         4.73455623939693   -1.49518444668619   -0.17451582773400
H         2.49492559860751   -2.37375691467793   -2.15015011193566
H         3.83802486613771   -1.35686403687742   -2.58290795257464
H         2.07898578126533   -0.81292771136023   -2.52531018813058
