37
 energy: -49.583867516550 gnorm: 0.137825849092 xtb: 6.4.1 (79825abcba525fcdf90b791dcacef51065a7a4e7)
C         2.62044881618362    0.47216009512718   -2.36187947291551
C         2.12735171136952    0.42878964787954   -0.90871439915798
C         2.49844358630298    1.80106006325792   -0.27793168750060
C         4.00582866379885    2.10927539520763   -0.39907379212576
C         4.91623412028612    1.05228650848019    0.24926178269810
C         4.33136029848017    0.78569864406243    1.62889102787582
O         3.21034078064797    1.61832045052585    2.07253445986967
C         2.18393960177950    1.90845946323757    1.19008942937342
O         1.08410796283171    2.32933452578364    1.55031258675990
C         3.80195632116479   -0.68131150463968    1.88090018699882
C         3.84506138013739   -1.05241896612868    3.49242925401077
C         5.02037364220200   -2.00517126738306    3.23380048505481
C         5.10812411574516   -1.65969261590140    1.77859199364563
C         2.44581621711571   -0.98942074594438    1.14965171575704
N         2.61963256353310   -0.79193616997185   -0.28230364864241
C         2.35765642481047   -2.01573195251710   -1.03545890313651
H         2.64289926035387    1.51088159571355   -2.70621003125553
H         2.04769317828800   -0.10086031578001   -3.10393880535168
H         3.67843890793559    0.20006923917345   -2.33452878516876
H         1.03443885991485    0.39781591261459   -0.94107067429441
H         1.87523333184948    2.47208925898708   -0.88476943923528
H         4.26216184187401    3.03505670336121    0.13752354813380
H         4.34500865841505    2.25052405691211   -1.42678446538075
H         5.96758774476102    1.36901230885176    0.33127145345323
H         4.97272579793605    0.11419094119622   -0.30965274424017
H         5.07289672925778    1.01669167521061    2.40220962833986
H         2.91788133574843   -1.42316706863062    3.93762790871284
H         4.07734281656082   -0.14238403031493    4.06300555766781
H         4.92537207384848   -3.07770287654777    3.41448836765581
H         5.89807054265770   -1.64216170347546    3.77875609638738
H         4.84976208246330   -2.52886501017015    1.13361799909306
H         5.98108087502739   -1.11747562781601    1.41595636557622
H         1.60141481752386   -0.42372564637017    1.56895462069669
H         2.14366370664183   -2.02708006525313    1.32644799149200
H         1.27058495005899   -2.12700052259961   -1.14763500998009
H         2.77305938601338   -2.81198177817880   -0.40983178429474
H         2.92391153667719   -1.99609908532626   -1.96879292170832
