37
 energy: -49.576124828409 gnorm: 0.137509910007 xtb: 6.4.1 (79825abcba525fcdf90b791dcacef51065a7a4e7)
C         2.09783011369546    0.45328075436678   -2.34935841433269
C         2.16133409930524    0.37414738524508   -0.81755567371537
C         2.59023532729616    1.77555783601690   -0.29715718150166
C         4.08504380922599    2.11132531723668   -0.48340880735551
C         4.86240774571210    1.08825984717357    0.36243098997752
C         4.36797422348773    0.91304439450145    1.79119211726394
O         3.24270759296582    1.80436868199954    2.08458491408368
C         2.22592525865905    1.93601116109316    1.15441654715357
O         1.08770467980778    2.31823102710382    1.42807338078901
C         3.90243166784379   -0.58579755522389    1.97185442795120
C         3.68605391956806   -1.15266331243855    3.51083090337336
C         4.92778606397555   -2.03516277469085    3.32299937985184
C         5.10816290882348   -1.68626025106225    1.87717137585670
C         2.66050587602798   -0.87979566306090    1.05536272072934
N         2.92408656550946   -0.78596357171843   -0.37342320231371
C         2.68947951682718   -1.95619770718930   -1.21548142693261
H         1.95484799021341    1.48160216920371   -2.69594331046121
H         1.33128615244940   -0.20630910718758   -2.77878249052792
H         3.01326007948195    0.07883055863651   -2.81400834000220
H         1.14086758936838    0.11499342831265   -0.52098842136654
H         1.84716093304436    2.36780473240506   -0.84852576917891
H         4.18594466001199    3.15492503290752   -0.14959287009769
H         4.38574525399287    1.97645276527954   -1.52387577812904
H         5.91388065708071    1.39589134855935    0.47267091495643
H         4.95392506118555    0.11488762603885   -0.12723333451754
H         5.06892195527790    1.15207881113211    2.59914664766333
H         2.75414628001257   -1.67734864398307    3.73792621343628
H         3.83808821894872   -0.37908716464010    4.27642941254181
H         4.69252077011908   -3.09507974490491    3.43799381112647
H         5.75890343765726   -1.79358690622010    3.99381188710638
H         4.87699733690345   -2.55353831541822    1.21945238320743
H         6.08136127059798   -1.27096506964149    1.61645655241972
H         1.78672658511694   -0.32132480074861    1.42068400754381
H         2.36642527394751   -1.91155378733259    1.27509370561175
H         1.72205866249913   -2.45009058070060   -1.05160561667340
H         3.33465725640175   -2.81528871063496   -1.00645744650521
H         2.73555282727647   -1.74197422531477   -2.28512073042077
