37
 energy: -49.576914964997 gnorm: 0.127686628183 xtb: 6.4.1 (79825abcba525fcdf90b791dcacef51065a7a4e7)
C         1.58259521646407    0.42695251209821   -2.17978462146915
C         1.96065580276841    0.47751632398902   -0.69276478828842
C         2.67623548101298    1.81864237914442   -0.36405707158646
C         4.18535162520544    1.88036231945341   -0.68129668528231
C         5.05472103520229    1.02182807677575    0.25332535958917
C         4.53826743237842    0.84050816675344    1.67350916854615
O         3.48047566673749    1.80168403253034    1.99596975143822
C         2.44920567533592    2.04844918178785    1.10603806024949
O         1.35500945172202    2.40871067058027    1.54132240674440
C         3.94702260654253   -0.59468852541242    1.96767902429982
C         3.53858298149647   -1.03939878259329    3.50781361531734
C         4.24239891845380   -2.37720321791438    3.24152970143966
C         4.94458448966609   -1.88958308984061    2.01114381486741
C         2.69264008953453   -0.91735146801161    1.07819337001848
N         2.91290193613379   -0.55982018485609   -0.31585274083539
C         3.13729898701352   -1.70301167514179   -1.19693709131508
H         0.95953400145209    1.30305189895495   -2.38534361750051
H         1.09054730250770   -0.44260839768113   -2.63673772544746
H         2.54870875969893    0.71681168821871   -2.60017826159481
H         1.01848177743455    0.55900888290286   -0.14309954418716
H         2.11512192492409    2.68321792318034   -0.74429905939945
H         4.46974027449375    2.93888739359551   -0.58453827402846
H         4.36611454048340    1.54758268352656   -1.70490108172488
H         6.03366267707161    1.52142338825627    0.32013136576002
H         5.23833729578128    0.04554869080634   -0.20358127001322
H         5.37229355091390    1.00829577594553    2.36452540496581
H         2.46400382878985   -1.09139795524873    3.70247885943210
H         3.98594564808130   -0.36328659323540    4.24971287563868
H         3.57053281962074   -3.20498307008393    3.00621305597342
H         4.91089832104093   -2.67186752971367    4.05724160058481
H         4.86934908510352   -2.61746308367049    1.17285187410886
H         5.98323924140275   -1.68345328461486    2.26856207763643
H         1.81991270559746   -0.47251496976811    1.57749988936651
H         2.52164208848434   -1.99868375791274    1.05044277958947
H         3.95657880544852   -2.33794394732584   -0.83316497636714
H         3.43393700708541   -1.49604264562859   -2.22996777624447
H         2.28159135463977   -2.37615617173504   -1.27929984605116
