37
 energy: -49.575392298853 gnorm: 0.149525446816 xtb: 6.4.1 (79825abcba525fcdf90b791dcacef51065a7a4e7)
C         2.24056297888570    0.45885490865000   -2.40973972614718
C         2.05012912251767    0.48374465056203   -0.88664093512723
C         2.81805302933430    1.71746568132202   -0.33261260349551
C         4.33068003221881    1.42833006428924   -0.43381531098842
C         5.05187718395095    1.56928905136948    0.91763125810603
C         4.20629237495883    0.92866800382326    2.00901308924900
O         2.86694020635194    1.50522716336285    2.15211659891050
C         2.32688869160640    2.11585590495902    1.03324835680860
O         1.36443175695264    2.84170854224331    1.28492425273554
C         3.84050842643577   -0.60264548511106    1.87795199686640
C         3.85849636966798   -1.33185246999412    3.36272077456359
C         5.18517406423243   -2.02669838990476    3.02641712676941
C         5.03053613867600   -1.68277659226007    1.57641978172838
C         2.54582718291212   -0.99333354737794    1.07799268360650
N         2.60275155586019   -0.75702787439764   -0.35749597327653
C         2.08717248394328   -1.94322871480104   -1.03621259039169
H         2.22536597677545    1.45956401496745   -2.85286526677049
H         1.51974478464766   -0.18796870821494   -2.92848224969325
H         3.28026089912591    0.13305526762688   -2.49344969739604
H         1.01078998863770    0.59857131465761   -0.56562099542418
H         2.61828985262900    2.56573000184804   -1.00154127363953
H         4.79159767471605    2.13054348707454   -1.14456537814446
H         4.45556838292202    0.37600091062771   -0.69494695151335
H         5.19908336586391    2.56290706647027    1.36867320525180
H         6.03699282204166    1.13018781401349    0.73780544554341
H         4.66125441124609    1.13450416848804    2.98466503245448
H         3.09530118692898   -2.09744582277051    3.52617951903603
H         3.74980189766859   -0.64643273598992    4.21481282433436
H         5.13449755171637   -3.10136228305775    3.21223119651670
H         6.07120278912906   -1.59249973764876    3.50131610330429
H         4.80647946409010   -2.45714683218056    0.80937847215253
H         5.87617142372297   -1.20177428810610    1.08540541749831
H         1.67849275986407   -0.53042151653582    1.57021523712327
H         2.46174285333717   -2.08235515743703    1.15706029478078
H         2.73469225902377   -2.75642579497769   -0.68108272997306
H         2.18958928325824   -1.87673373165215   -2.12390368239599
H         1.04607785223528   -2.23495470969554   -0.88402651925720
