37
 energy: -49.578888293095 gnorm: 0.141656140197 xtb: 6.4.1 (79825abcba525fcdf90b791dcacef51065a7a4e7)
C         2.35417452687790    0.60481189514036   -2.43803141022841
C         2.05491512201654    0.42634552516551   -0.94293675007809
C         2.56025884165768    1.76712191494177   -0.33823146243456
C         4.07780818342571    2.00967813529927   -0.47997889452701
C         4.79933629744694    1.00072940736882    0.42986848712297
C         4.28765855293322    0.76076882025159    1.84306632677050
O         3.11461725953065    1.58602928806604    2.14253685731746
C         2.28302153385517    2.01149318170199    1.12086261068212
O         1.30577947865545    2.65450580645625    1.50564683082648
C         3.83823587087166   -0.75136747179611    1.92885125704442
C         3.68605040306803   -1.34440519970949    3.46565006252972
C         5.13033542512880   -1.84060691756381    3.31134731518882
C         5.11088206200303   -1.77173094517842    1.81482966792379
C         2.53091712002623   -0.96297041792454    1.08332567743814
N         2.73245674801338   -0.71312826035982   -0.33676908395600
C         2.48876911328908   -1.95370420060495   -1.06830044720928
H         1.59249706374030    0.25058924150214   -3.13973195946486
H         3.19509189338736   -0.07223826468622   -2.64178256893927
H         2.61155438255177    1.63010913153700   -2.71488102637956
H         0.97146563697497    0.30644460639764   -0.85224069695080
H         2.00028366239614    2.60396752400258   -0.77759519301681
H         4.33546315056610    3.05073030034662   -0.23393269599407
H         4.54666941759363    1.73612304258809   -1.42682641914010
H         5.87362450037810    1.24074946578002    0.40378230489514
H         4.65286172689842    0.06940762210277   -0.12401326381457
H         5.03183379804123    0.99006678259649    2.61435184677473
H         2.88487233673795   -2.07153442323351    3.62286212339883
H         3.54271716437529   -0.52154128590308    4.17981120085452
H         5.31958498397586   -2.85372204580498    3.67159695887854
H         5.87274393680134   -1.17932146072403    3.77029781256291
H         4.83278688731475   -2.69538964404675    1.26010385744137
H         5.97744509812676   -1.28174557257628    1.37150111772810
H         1.78240575803719   -0.22348425851540    1.40227797472971
H         2.19911873462398   -1.96746297911965    1.36651193933485
H         1.43195568270704   -2.22540264737450   -1.19484644982772
H         2.93468566747561   -2.75038546751486   -0.46461171646373
H         2.95357719392984   -1.94158030271633   -2.05620183509011
