37
 energy: -49.576858744106 gnorm: 0.145790103218 xtb: 6.4.1 (79825abcba525fcdf90b791dcacef51065a7a4e7)
C         2.20294789629929    0.49452976847796   -2.34555312447345
C         2.13063963176039    0.43797350358686   -0.81314084811050
C         2.67002681897745    1.78430218719194   -0.25172954886240
C         4.16385672027834    2.03795942129943   -0.54500774796164
C         5.00122054341974    1.12769502455147    0.36967425627425
C         4.39331608764757    0.85792899193079    1.73868915292028
O         3.37203342088285    1.80837708920868    2.18634243074178
C         2.39668508574941    1.96785543948800    1.21698618006898
O         1.25390966214914    2.33381675903263    1.49386671304184
C         3.83908333331095   -0.61247279108732    1.90190864938049
C         3.74753763325584   -1.05648926361091    3.49284343695983
C         4.57631208710786   -2.29902064104494    3.13896014038315
C         4.93468343548193   -1.81866951247708    1.76581769841663
C         2.47672155702888   -0.84876340479313    1.15564544584868
N         2.76959573558065   -0.75311829208948   -0.26730402289142
C         2.68750341948677   -1.91764586889079   -1.14519172843309
H         1.74372573042028    1.35878812913687   -2.83563719395893
H         1.69057395619581   -0.39423006057423   -2.73878636331397
H         3.23436256723899    0.39880967349717   -2.69361341375589
H         1.04502528702132    0.42035622420567   -0.68049118131400
H         2.01967253217865    2.58985871532883   -0.61920913635678
H         4.24308920192589    3.11557088406066   -0.33718527107519
H         4.50825709854657    1.69667883849223   -1.52281111551392
H         6.04618008109787    1.45153299258314    0.49446926674469
H         4.98066343049050    0.13901713647483   -0.09690210474477
H         5.12825387656957    1.04986225795925    2.52880546122752
H         2.69306509596401   -1.19669189675529    3.74533052434382
H         4.26942796114175   -0.28392898867954    4.07461373524331
H         3.89415011904347   -3.15098597059971    3.16737826310763
H         5.38839216632760   -2.43437485894508    3.86097786271794
H         4.77850111522751   -2.56695997949266    0.95719448816833
H         5.94939603834571   -1.42818274512904    1.69208994572045
H         1.79990130863646   -0.07018917143241    1.53587711083184
H         2.07819077489206   -1.82431489782541    1.45357569196801
H         2.97236150982447   -2.85146443327617   -0.64167676426116
H         3.35253641942581   -1.74167337601252   -1.99651275140835
H         1.72074654912121   -2.24730817198638   -1.53099816369606
