37
 energy: -49.581652772312 gnorm: 0.136059486806 xtb: 6.4.1 (79825abcba525fcdf90b791dcacef51065a7a4e7)
C         2.27506624813710    0.58731461292543   -2.48365809179514
C         2.21016018024268    0.42066362669507   -0.95895185639953
C         2.64567184616265    1.74899238308254   -0.27734026303329
C         4.14888980495681    2.08986439921594   -0.35495400007639
C         4.98311716914505    1.08422922933188    0.45693590575775
C         4.28398168228011    0.72724264170241    1.76088892741662
O         3.14149611046038    1.56336571260297    2.13823260994857
C         2.26658881721239    1.99874831392541    1.15773861615047
O         1.30232028626248    2.67877599982095    1.51026481012386
C         3.80701576513376   -0.77627993201834    1.84931603816320
C         3.67233690583686   -1.25479867275678    3.42712659631006
C         5.11485681442659   -1.77886512800004    3.40532364016006
C         5.11518404909235   -1.75562014777309    1.90727592375027
C         2.53889989633190   -0.99854224288918    0.94862007007863
N         2.72572232029996   -0.85909746542168   -0.48851631314722
C         2.25705087007261   -2.07309026567704   -1.15193096453399
H         1.92229289214777   -0.35239329394476   -2.92013250879480
H         3.29624028111837    0.80043276111377   -2.82838654980082
H         1.66208080978630    1.45590392775583   -2.73649396257601
H         1.16259494121690    0.34510101815573   -0.65339962307527
H         2.11761264487803    2.48774424091574   -0.89566253242432
H         4.31124450104116    3.10776848419029    0.03004815011850
H         4.44553388026467    2.13545374898468   -1.40429064018773
H         5.93203868673968    1.59104662494018    0.69160450060901
H         5.27980206199078    0.14267326952594   -0.01322417303220
H         4.90722631827402    0.95425446378750    2.63340682019473
H         3.01598070409440   -2.12543684575710    3.50777735866392
H         3.49624291494750   -0.44630864111848    4.15032113661581
H         5.26241304076209   -2.73201045626072    3.91692759411259
H         5.86485807068934   -1.10077073406561    3.82578828743853
H         4.76830803187204   -2.73569906506603    1.51063327623550
H         6.03000184124300   -1.47591963327101    1.38532440468135
H         1.74632090171820   -0.33095873588554    1.31603046793023
H         2.30463669216659   -2.03448103966635    1.21553110038397
H         1.20018970730391   -2.36827637966866   -1.10095844605503
H         2.83811455474336   -2.90080606457493   -0.73332106752371
H         2.55972827523854   -2.00948391281480   -2.19906195554184
