37
 energy: -49.537960428866 gnorm: 0.171136892374 xtb: 6.4.1 (79825abcba525fcdf90b791dcacef51065a7a4e7)
C         0.84182818545998    0.46198190012017   -1.16484894238395
C         2.18927502710546    0.47972136691981   -0.42946686585308
C         2.97225158218638    1.81749404656518   -0.30284098219695
C         4.47934551493407    1.70753957200823   -0.61662400428608
C         5.30756580148545    1.13000534262812    0.54393964252237
C         4.47620171203410    0.53889829125700    1.67351899506250
O         3.66402585034671    1.69042629763371    2.07491273106965
C         2.77688152529385    2.19679310031539    1.14059111126690
O         1.81120206063791    2.91012431246888    1.41472238958525
C         3.79319191588614   -0.88434309584697    1.61205796187381
C         2.86888153126050   -1.09643369923032    2.96751825506513
C         4.01952198612647   -1.79348657089715    3.70652335483978
C         4.78808344468342   -1.89618180266751    2.42455051229131
C         3.17930045966697   -1.57452544822445    0.34101225634447
N         3.08141397287391   -0.62515762007007   -0.75845462748903
C         2.98154355116899   -1.45918824872324   -1.95343131062970
H        -0.01959495312245    0.93672887156654   -0.68466627380079
H         0.54927860946748   -0.54219666601664   -1.50114289179545
H         0.82705514327744    1.09815432090925   -2.05321313079773
H         1.80050464659917    0.22021108000033    0.55946024221143
H         2.51549263391130    2.49419677163054   -1.03793822455773
H         4.84911859636083    2.70835366125932   -0.88560999195277
H         4.64464635934177    1.04084221337461   -1.46478304193897
H         5.93465159016703    1.93573540146816    0.95618683343674
H         5.98331887120074    0.32039180753030    0.25500406801773
H         5.19973477943269    0.64084370177923    2.49044172278283
H         2.04796817000106   -1.71147903678177    2.58918067394227
H         2.27038788158984   -0.22749501573737    3.27480717111615
H         3.76390845988039   -2.76325923416393    4.13803252958976
H         4.42817885409918   -1.12801706670160    4.47415237515166
H         4.93569678182010   -2.88762276219173    1.94137542388303
H         5.71626068306724   -1.33603366679573    2.53535867200396
H         2.21600913481650   -2.02591352260461    0.61878595302649
H         3.97390041643635   -2.29127296279952    0.10825950146278
H         2.27045645548323   -2.27376468486108   -1.75975906575040
H         3.91683447414325   -1.98670517835599   -2.16542064133745
H         2.86521915636114   -0.89082486870722   -2.87840395674075
