37
 energy: -49.577092423737 gnorm: 0.142570194675 xtb: 6.4.1 (79825abcba525fcdf90b791dcacef51065a7a4e7)
C         2.18027789982018    0.49789508528569   -2.35785164162743
C         2.06676671912855    0.45147459680812   -0.82759844575139
C         2.82621879377936    1.72750839874111   -0.36532969152634
C         4.33774686233067    1.42767215745748   -0.45055278456154
C         4.98457263370066    1.61657630051925    0.93231894875736
C         4.25030891822001    0.90025903726636    2.05671640981410
O         3.03564729497265    1.70999905010120    2.18194241392692
C         2.34630764867816    2.03792793204901    1.02709925247901
O         1.25837563736168    2.60411161792095    1.13830240644233
C         3.81990149262656   -0.61516860996278    1.93787044441406
C         3.81600603451968   -1.35609445687709    3.41693041816923
C         4.88216623264375   -2.29637951553761    2.83800802185792
C         5.10916128422467   -1.54742941946856    1.56041873191335
C         2.47199490383677   -0.88159866246144    1.17567990943580
N         2.70883450948653   -0.72391101214953   -0.25216813936504
C         2.37688862254274   -1.89360792978836   -1.06159479285233
H         1.64329767782454    1.34111215121592   -2.80355011821631
H         1.69322833886140   -0.39277193425506   -2.77802833858744
H         3.24672825194374    0.50860793413833   -2.59595542381789
H         0.98049375641555    0.43850093743509   -0.69989747760394
H         2.51691184799186    2.59024860429567   -0.97107864577006
H         4.83157029028285    1.94742177735462   -1.28524624210405
H         4.46360338354202    0.36775907710098   -0.67842967762319
H         4.94194520506569    2.71032596879062    1.05181712882415
H         6.00675559095826    1.23224838214171    0.87723637414557
H         4.69694234655820    1.06175022762865    3.04448908536626
H         2.85382172115809   -1.78843994334569    3.70432831543385
H         4.15695683677040   -0.76761155259379    4.28013142437388
H         4.63478423201753   -3.35779707629264    2.77325952724595
H         5.82307684673727   -2.38408311360914    3.39127080271535
H         5.05528082966542   -2.11531900815521    0.60501235740545
H         5.98045978136995   -0.89351637833772    1.53224036190763
H         1.56574151480779   -0.30459040294044    1.40935883223936
H         2.23977819462730   -1.92301623347257    1.42228640216860
H         2.64498105305355   -2.77194296421196   -0.45881574267847
H         3.03811048001599   -1.97361764580960   -1.93013770738274
H         1.31838554388526   -2.02633959383654   -1.29418075117685
