37
 energy: -49.582620455817 gnorm: 0.150613703297 xtb: 6.4.1 (79825abcba525fcdf90b791dcacef51065a7a4e7)
C         1.62810301708708    0.49110564996560   -2.28828928301089
C         1.93007578016527    0.34708519260459   -0.79002863010815
C         2.62038367797357    1.65318125267690   -0.30391123258796
C         4.11381650856068    1.94242817754210   -0.56444223272431
C         5.03589642252304    1.00963485587525    0.23934121579334
C         4.45103168562715    0.80055880979012    1.62885326876080
O         3.38456323816989    1.70970128910386    2.05648430555328
C         2.34304217566640    1.87231502628357    1.15916614510060
O         1.28219781232857    2.33269573457364    1.58246863252655
C         3.89102467231936   -0.65868442490490    1.85884727254907
C         3.55198324042714   -0.91494461582303    3.45759251348160
C         4.61769843234980   -2.01954438278836    3.46734895449972
C         5.10056088723213   -1.73710765039679    2.07747099692073
C         2.63697052330235   -1.13139960578313    1.03868867703264
N         2.75288382753443   -0.78032416338805   -0.36950823495534
C         3.20798645180484   -1.77523674029789   -1.33727936994950
H         0.77857014594197    1.18033239607561   -2.25264797626435
H         1.32164548436442   -0.45971664160902   -2.74553561143637
H         2.43266786337972    0.89356014150251   -2.90863619975030
H         0.93026499076677    0.23739611153283   -0.36013159299368
H         2.04596451861188    2.46693373642522   -0.76734706373794
H         4.27566891466210    2.98858356193970   -0.26431370625019
H         4.31732682219941    1.94538781556301   -1.63671004212932
H         5.97235777498266    1.57064226735805    0.38320252142824
H         5.08482713236951    0.04543559642108   -0.27400624732972
H         5.18926626198782    0.98782059035078    2.41701469545654
H         2.49341478223117   -1.18606774421683    3.49286157909112
H         3.80592207693124   -0.06371619618625    4.10458618425725
H         4.20803386153365   -3.02879453321419    3.54209208501701
H         5.35349127610527   -2.00988517732594    4.27828668370581
H         5.11934046764728   -2.52569556457684    1.29262740400975
H         6.04622321374641   -1.19592015954360    2.05756563471908
H         1.89069021695610   -0.44500103625378    1.46385018349531
H         2.46897538796077   -2.18635237126860    1.27981561605859
H         2.34856244810835   -2.31771402895256   -1.75416943295192
H         3.94277221079489   -2.36155920842928   -0.77665602127509
H         3.68186999971194   -1.18294651525261   -2.12262601877046
