37
 energy: -49.579306696766 gnorm: 0.144221658046 xtb: 6.4.1 (79825abcba525fcdf90b791dcacef51065a7a4e7)
C         2.00327831714954    0.67897795553221   -2.32570553466442
C         2.10269583413989    0.41068122095995   -0.81744577259622
C         2.61949233177799    1.75705516922699   -0.23527681423234
C         4.10250319541463    2.05405708459800   -0.54244210591305
C         4.98662152003672    1.04781514345249    0.21400654197711
C         4.52399463843779    0.82581406324842    1.64691100915534
O         3.45240574508932    1.71852881415597    2.09582185054462
C         2.38432104452720    1.93108693286032    1.24118544494944
O         1.32542363305037    2.34926455810638    1.71064250163304
C         3.99456959243229   -0.64183121616377    1.89514960043044
C         3.48984124967451   -0.93422175134780    3.44316827199351
C         4.17455740030708   -2.29947726053325    3.29076782854094
C         5.10713301023640   -1.79123486600817    2.23403711517756
C         2.83932936762432   -1.10415605641589    0.93575010928650
N         2.96165113704047   -0.71182586482264   -0.46096849681444
C         2.72890856531442   -1.87176334331237   -1.31766354581311
H         1.36577105730871    1.52982263255345   -2.58581654700363
H         1.51561562888313   -0.15590714029928   -2.84743865624760
H         3.00029199371958    0.78161559309354   -2.76108326873744
H         1.16183967573702    0.33201697022036   -0.26511757403140
H         2.01098162795135    2.54784144730207   -0.69494523247810
H         4.25007918457422    3.10152059609160   -0.23952965449088
H         4.34599799909018    1.98254295605461   -1.60394080711327
H         5.99748271028571    1.48432965047820    0.21403539398375
H         5.02894234661720    0.09002170744482   -0.31176977366514
H         5.25948752757133    1.05574900373036    2.42629271406127
H         2.39901827295674   -0.91042632931071    3.51286653867537
H         3.90896633739512   -0.16914274025595    4.11149741077986
H         3.48583483045632   -3.09506012287583    2.99972385422763
H         4.48893961262095   -2.67137309038591    4.27156430504976
H         5.46044884192744   -2.51791127972718    1.46898002829159
H         5.99522642537159   -1.29274225307922    2.62179034260542
H         1.96674216867111   -0.75678153823221    1.50738122301197
H         2.82582982474563   -2.19837469584668    0.89340311629670
H         3.58414681870596   -2.55479320151233   -1.22424882789088
H         2.82924491247580   -1.62882792716927   -2.38015952120856
H         1.86584949582807   -2.49356451468309   -1.07142171782786
