37
 energy: -49.565343524339 gnorm: 0.152986804577 xtb: 6.4.1 (79825abcba525fcdf90b791dcacef51065a7a4e7)
C         0.99369961939385    0.52620059038606   -1.34023129321689
C         2.11594198416882    0.24640095713369   -0.33077664249764
C         2.77118127987636    1.63944882927241   -0.10986674020352
C         4.21290794198709    1.72450888627221   -0.65399069903687
C         5.15672317360892    0.84022147544122    0.17886654099076
C         4.65750659303939    0.53108919325482    1.58305432958504
O         3.85780769298653    1.65166407323616    2.08460883276371
C         2.72455889643253    1.97265678939341    1.35721614959963
O         1.97068367314956    2.78973735674654    1.88691198876884
C         3.89621396949080   -0.85076225124977    1.66561355259121
C         2.68359444295608   -0.77807786675019    2.78850070018127
C         3.60169081577109   -1.57485886273199    3.72563665439852
C         4.66328948235155   -1.85267690425225    2.70558135996312
C         3.61630779423481   -1.62350949331213    0.32647734501047
N         3.04624399564518   -0.80182035172527   -0.73161651000073
C         3.19864342001584   -1.20951900114527   -2.12592875082069
H         0.40838479026019    1.40189000964178   -1.04259981939993
H         0.29604625769645   -0.32247425044052   -1.34941096036087
H         1.32446400828314    0.59514181215591   -2.37944568016259
H         1.61632011586238   -0.18687237203324    0.54049656388409
H         2.08059978847605    2.38821726074459   -0.52140811035207
H         4.51971986019726    2.74393779967197   -0.37587997584575
H         4.12839847133869    1.62291792527493   -1.73737470456599
H         6.09554275710315    1.41382569906683    0.22337770746971
H         5.33114986862698   -0.10161628650930   -0.34850145746522
H         5.44436531292521    0.60008357045461    2.34288906646663
H         1.83648869324946   -1.42759301167314    2.55215191198613
H         2.38589490367509    0.22710398238551    3.11813684509252
H         3.23431490414708   -2.45589786717084    4.25554482916492
H         3.95122396483743   -0.91626349875128    4.52762364626225
H         4.88904606037650   -2.86688208414862    2.30730399685219
H         5.65211760119707   -1.41257844529820    2.83242640048642
H         2.96065957585610   -2.47140835423048    0.57149267613922
H         4.54661937290726   -2.04201593908613   -0.07184742979380
H         2.26230084656837   -1.59283812400649   -2.55373429503587
H         3.88210110445400   -2.06310798925951   -2.17340627821373
H         3.69928379010436   -0.43595106280841   -2.71167147618690
