37
 energy: -49.573039953761 gnorm: 0.155941016234 xtb: 6.4.1 (79825abcba525fcdf90b791dcacef51065a7a4e7)
C         1.63477796581646    0.74453610293658   -2.33032642729765
C         1.99792800192544    0.51650025554592   -0.85627211364537
C         2.67338253186736    1.79488272217015   -0.28336592634761
C         4.20382770706972    1.93083313323323   -0.42875120032965
C         5.09096709654312    0.86954203939107    0.24433682737082
C         4.54356051555588    0.65776345478708    1.64862281708095
O         3.54900444148498    1.62452733413480    2.12084005125255
C         2.51582693965154    1.78473637696756    1.21349968040767
O         1.36396939335560    1.85347757313156    1.64364501558173
C         3.75537987147352   -0.69326126690031    1.87088247378835
C         3.36203520372146   -0.91746461104140    3.46198822459255
C         4.54659364246761   -1.87944560923133    3.62751332910434
C         4.85106844719285   -1.87195513154277    2.16056875805042
C         2.62667084698383   -1.05900815279235    0.84082583680011
N         2.86593422394066   -0.60585701082519   -0.52193440028781
C         3.14417746462862   -1.69223705208991   -1.45783477089426
H         0.92654396873211    1.57663120827476   -2.39382633733075
H         1.08622429008989   -0.15347854882764   -2.64609850954515
H         2.41875802639258    1.01175576302280   -3.04313314713833
H         1.09070422143892    0.39604974250308   -0.25718825760969
H         2.25792697308182    2.70106024034280   -0.74506086468690
H         4.48989320958680    2.88668352877515    0.03517871926195
H         4.48919456934265    2.04404221283957   -1.47609685673895
H         6.13455157259655    1.21662089396803    0.19092381769999
H         4.99861075890746   -0.08168449567584   -0.28692433483310
H         5.33359863509827    0.70575284507526    2.40677350840085
H         2.38032507704452   -1.34787230896493    3.67719338086487
H         3.39390359697217    0.07234813712688    3.93836064972114
H         4.28519244567612   -2.82583254428785    4.10502630447402
H         5.25924603295093   -1.36508960549976    4.28071228751460
H         4.63683948974041   -2.82391536177876    1.62570363210096
H         5.85466429704060   -1.57001745916355    1.86192789695587
H         1.69907707751588   -0.62101381733732    1.23651553114699
H         2.37545807585225   -2.12439266456276    0.87455829505392
H         3.96030140823668   -2.26636182911464   -0.99847543033203
H         3.53615971190457   -1.11205730339114   -2.29909814768024
H         2.26762328332023   -2.23886202727735   -1.81138332040907
