37
 energy: -49.574643737621 gnorm: 0.155401781867 xtb: 6.4.1 (79825abcba525fcdf90b791dcacef51065a7a4e7)
C         1.74369103252629    0.52308549292617   -2.37060640011433
C         2.03613621286289    0.43305481414514   -0.86625113736091
C         2.84924299035826    1.64739354385461   -0.33431043245008
C         4.36777653655234    1.51543937565072   -0.57623151758976
C         5.09873146478711    1.52736928360920    0.77726956115972
C         4.38487661365060    0.94284821864891    1.98775280769287
O         3.14113048741237    1.69560141762846    2.17002050678528
C         2.42670674788900    2.07343053317057    1.04608406252956
O         1.37016760223689    2.64365078187479    1.32012798778228
C         3.96217987660174   -0.57509816719655    1.87346301618530
C         3.67883941631949   -1.19959841034474    3.37889397333797
C         4.65108742007507   -2.34597326589316    3.06817993196011
C         5.21423363873310   -1.62680215740191    1.88059976660215
C         2.68574325917116   -0.97536244616293    1.04928485081368
N         2.71255405840314   -0.76777159819451   -0.39151202979702
C         2.44448117992175   -1.97211662837519   -1.17333069606623
H         1.29678567195044    1.49918851057469   -2.58393339350993
H         1.14269667534160   -0.36712118056832   -2.60167203999780
H         2.72688080637910    0.35871260772207   -2.81831607109114
H         1.04969730641737    0.58402867952092   -0.41835608335346
H         2.46048953713606    2.49303419164183   -0.91799349060241
H         4.79375323151108    2.34472033555885   -1.16065547833286
H         4.36446863626749    0.49627165755575   -0.96670521817110
H         5.11076342570028    2.59538954272773    1.04480129407828
H         6.07452279541783    1.08364271632720    0.56154273963767
H         5.00329210781346    1.11585073562438    2.87594653682217
H         2.65828604747081   -1.52720636360584    3.59444602025189
H         4.01426930163055   -0.53546830203371    4.18765448151874
H         4.04231837071951   -3.19645739304388    2.75501151508172
H         5.45878315192562   -2.64836771403087    3.74293145175459
H         5.30659589455604   -2.18076348983877    0.91997544242256
H         6.12096062378612   -1.07980150661343    2.13788136794863
H         1.82852006471554   -0.43635006595935    1.47762308387807
H         2.54349288351266   -2.04856567453797    1.21448045079334
H         3.28354598274244   -2.64282475181130   -0.94352766319544
H         2.51294033162067   -1.69418256246458   -2.22976275450494
H         1.43127049296587   -2.35741134969083   -1.04258372269135
