37
 energy: -49.574060678989 gnorm: 0.140412118971 xtb: 6.4.1 (79825abcba525fcdf90b791dcacef51065a7a4e7)
C         1.13446781715381    0.48878802673962   -1.69961401127986
C         2.09001077036701    0.38465613125017   -0.50261414366637
C         2.70934376394092    1.77158245533417   -0.16857205755980
C         4.17190294768930    1.80481127376686   -0.66020030065543
C         5.16487596090364    1.02807360245760    0.22132437914713
C         4.62452365202505    0.58556442946138    1.57362918789583
O         3.66438386826919    1.57242005712727    2.07463903985036
C         2.59368427898746    2.00870672384935    1.31329444705286
O         1.72078014513252    2.67094815073798    1.87543396350755
C         3.87855025507713   -0.79540691105518    1.75345617179157
C         2.88711393391437   -0.78452540653868    3.07766926301501
C         3.82963827835222   -1.82576813794020    3.69689954291533
C         4.81594961661750   -1.85794622619275    2.56958330005757
C         3.32294767448528   -1.50499310255758    0.46638011184972
N         3.11112296314458   -0.63952520738169   -0.68505553485115
C         3.26454066613919   -1.40440089776786   -1.91995578216436
H         0.43702666920500    1.32308894142982   -1.57500367122318
H         0.67225005151983   -0.49640235245410   -1.85063759078816
H         1.71212382740034    0.68246098106552   -2.60676826801293
H         1.56743638259918    0.08153494086098    0.40925117269054
H         2.12755893894345    2.53283219199048   -0.70611136071738
H         4.51454366704633    2.85019843275134   -0.63834970178230
H         4.07867140974011    1.48231269583053   -1.69870211878478
H         6.07888885131385    1.61470506503118    0.40251271749054
H         5.50123178043735    0.10201689569120   -0.25289474690357
H         5.36793445262255    0.68604093840853    2.37269148135314
H         1.91844199470222   -1.24705118398673    2.87015201600456
H         2.87622707441171    0.22192223923278    3.51882703001662
H         3.30385114968711   -2.74596021489657    3.95918164192446
H         4.13498304331325   -1.47245237810231    4.68737264168577
H         4.78224258814353   -2.84636052305804    2.05957932540351
H         5.83837842419749   -1.62874361956244    2.86902085827157
H         2.37296111999191   -1.95067729956145    0.79460372188075
H         4.09183695220761   -2.21768516125127    0.14988487918059
H         3.60520170093943   -0.84293044906593   -2.80051784711683
H         2.40926063683941   -2.05802070744909   -2.11809690218795
H         4.11365491842596   -2.07429778590946   -1.77033681334785
