37
 energy: -49.580329087933 gnorm: 0.132555230593 xtb: 6.4.1 (79825abcba525fcdf90b791dcacef51065a7a4e7)
C         1.74383062279653    0.47485148866247   -2.29210417892226
C         1.96223643439017    0.47470195783709   -0.77256038420660
C         2.79313371533424    1.72631082632387   -0.37030791976467
C         4.29435911550636    1.37801392512826   -0.45333453525318
C         5.05375741231412    1.51373893673637    0.87756574118801
C         4.21101567935971    0.89548635202679    1.98394425699085
O         2.99428415302334    1.70120432500079    2.11488789990145
C         2.36092504176711    2.20241299148998    0.99059463276430
O         1.41418304616276    2.97499756315979    1.14329972228765
C         3.91112592115634   -0.65073848916751    1.86085582366916
C         3.79708318170262   -1.32921541881969    3.36527199942801
C         4.85930560498223   -2.33878118462313    2.90871401607478
C         5.28462995960549   -1.52728283159762    1.72327864915117
C         2.57273406239565   -1.02060348657600    1.12554727553403
N         2.56195295430819   -0.77030245711016   -0.30865687949557
C         2.60258828344955   -1.94769897712217   -1.17215940622030
H         1.19616961166494    1.39251383790832   -2.52869060867172
H         1.35074466575537   -0.50665403471322   -2.59074075409799
H         2.73989903210004    0.51141831402404   -2.74002729572791
H         1.00559948743613    0.77400494656316   -0.33469251495867
H         2.51360530575403    2.56233430393225   -1.02593880876497
H         4.86541662607044    1.84027085756839   -1.27243542429866
H         4.23752713458626    0.31711616400529   -0.70323362868632
H         5.23544573451647    2.57194130127671    1.12166073207402
H         5.97963766372803    0.93412582825270    0.92649892279218
H         4.72191383499286    1.03634797961430    2.94331737226543
H         2.77635926400970   -1.64380316750185    3.59867308335560
H         4.21154658498405   -0.63006222716414    4.10492088236836
H         4.43597238248939   -3.32089168587469    2.68906564365951
H         5.66671381769672   -2.44097067754940    3.64134877894169
H         5.28847508842118   -2.18150512453894    0.82317785716587
H         6.24622196898329   -1.03855419429961    1.87833499635829
H         1.80314197661658   -0.40442538193205    1.61226294960041
H         2.30339253390423   -2.06924558632488    1.29015223874463
H         2.99625571635963   -2.74925780676003   -0.53245794856972
H         3.27529637527290   -1.85031835470208   -2.03004256741245
H         1.60492745325418   -2.23721814537029   -1.50830550193128
