37
 energy: -49.572993820046 gnorm: 0.146521949602 xtb: 6.4.1 (79825abcba525fcdf90b791dcacef51065a7a4e7)
C         2.56879909817770    0.41790911800913   -2.34670783692279
C         2.07821258968990    0.38511835004493   -0.89241620986818
C         2.87031679764787    1.61365989220568   -0.36139953975765
C         4.39194818484576    1.37929168566866   -0.25373665560195
C         4.98600108686675    1.65585829317360    1.13803007956685
C         4.10910022977265    0.95955148948367    2.16891563416867
O         2.90657524416277    1.79460223655993    2.11071606667185
C         2.25616668240114    2.09425433664868    0.92599393245463
O         1.14386303045833    2.61765236392604    0.99921439948135
C         3.87222323166900   -0.58095180516172    1.91077851338512
C         4.06930622240551   -1.38065352658854    3.34543532406577
C         5.09301217757518   -2.28382998231835    2.64380642578690
C         5.07811172159228   -1.53135287955534    1.34833601789495
C         2.46542387625649   -0.79984729980953    1.24611926847750
N         2.51137384147128   -0.82730383700987   -0.20881824712579
C         1.87988679166288   -1.98822365916384   -0.83094341657884
H         2.60578716388696    1.46249341911639   -2.67149304983409
H         1.88303185524956   -0.09817581528559   -3.03258909514201
H         3.55823613699616   -0.01781227193978   -2.50572275014030
H         1.00630476034401    0.60261595156841   -0.87925585728499
H         2.72034426630606    2.46506862795238   -1.03928939356754
H         4.90912244423620    1.86799028459624   -1.09303331327199
H         4.59205988135727    0.33654033661512   -0.50633992301990
H         5.05536117177102    2.74593216742898    1.27700265706545
H         6.02809954530108    1.32671045943999    1.17398207802500
H         4.55553740977673    1.13195523640876    3.15493108690777
H         3.10371910638072   -1.84985850037638    3.55233396878631
H         4.60913657017642   -0.77486081526088    4.08656550861714
H         4.67892578561689   -3.26136264275924    2.38893426236869
H         6.07362485586405   -2.43910162454076    3.10575220347434
H         4.84885978606325   -1.99302135558090    0.36217741108526
H         5.99191457213619   -0.96009633186129    1.18651000603903
H         1.76498938247397   -0.07489716659066    1.68507075812267
H         2.19399087776884   -1.78977570775305    1.62776806226853
H         2.42073228204127   -2.90349597221337   -0.55444511128793
H         1.82799570015230   -1.80479356031593   -1.90873904144596
H         0.81958236658268   -2.11854155502829   -0.60530108653712
