37
 energy: -49.558733357224 gnorm: 0.141969372307 xtb: 6.4.1 (79825abcba525fcdf90b791dcacef51065a7a4e7)
C         0.91930844390296    0.44640005044993   -1.25502089549336
C         2.19728300695496    0.46636123551797   -0.40466976274866
C         2.98617200413345    1.80651573503192   -0.38563810630619
C         4.49330431441255    1.65528241161962   -0.68154781857700
C         5.22755894358297    1.16082749514699    0.57654083864054
C         4.39096369542332    0.53996697089588    1.68611908293289
O         3.37451896997126    1.54481683078283    2.00842356823766
C         2.74381373003858    2.28275375195864    1.02148421947672
O         1.91983646849895    3.12498489284200    1.37958249283317
C         3.84620535555651   -0.94254706212174    1.72198508537291
C         2.90783213645349   -1.03120385610673    3.08147042177384
C         3.92349662595998   -2.02637199305339    3.65944163827729
C         4.88293947635804   -1.92921677830306    2.51283024981909
C         3.25234632723639   -1.60040674835275    0.42455545373283
N         3.06292387550357   -0.67325250556087   -0.68188594600209
C         3.01283213303112   -1.30918354961670   -1.99590001151346
H         0.10567809141293    1.09599805129345   -0.91732577512101
H         0.54282852594095   -0.58443973756452   -1.20319741180114
H         1.07063582127186    0.61221193660609   -2.32447447915970
H         1.77171639627454    0.31470241493971    0.59150164799926
H         2.46240417242211    2.38575541391425   -1.15834239468884
H         4.90388967634985    2.65417863939686   -0.89211947053076
H         4.76421862217356    1.13924991697718   -1.60431505669982
H         5.60101366798985    2.10057404129131    1.01219352303215
H         6.01019784714404    0.45816712284442    0.27763484784351
H         5.00480673335024    0.59003768010463    2.59273110465765
H         1.97116248771914   -1.50604046309391    2.77733393842751
H         2.74374401912573   -0.08063644893816    3.60794193560448
H         3.53009909286445   -3.02453859591127    3.86167733165888
H         4.30582036496715   -1.55772582762422    4.57229635895013
H         5.14217941943631   -2.86553501555936    1.97033062351192
H         5.79773227429997   -1.36899968862712    2.70484147672728
H         2.46563753744821   -2.24577339015236    0.84100564692045
H         3.92093368785608   -2.41230938655262    0.11944077429775
H         2.01434542439076   -1.46606894497496   -2.42613230134189
H         3.61934813384850   -2.19656927029164   -2.20246140614057
H         3.39799645801536   -0.49236265179237   -2.60957318004395
