37
 energy: -49.585451352244 gnorm: 0.127618777736 xtb: 6.4.1 (79825abcba525fcdf90b791dcacef51065a7a4e7)
C         2.14262335418934    0.62025040354875   -2.48140734785258
C         2.05841864147444    0.48472900685167   -0.95456159238909
C         2.58481276617511    1.77728234855835   -0.26831297347478
C         4.10571470537146    1.94196272765661   -0.47232161702077
C         4.91496283318982    0.84024672662584    0.23318666510447
C         4.38972127425013    0.78657335744324    1.66068931234747
O         3.42065574321843    1.83185002193262    1.99991196792705
C         2.28765092171696    1.85909000694118    1.20496083013780
O         1.17807613781220    1.93934695568935    1.73309791293436
C         3.75798792321347   -0.63508944508156    1.93579619691023
C         3.69228267098447   -0.94606433652951    3.55924380890342
C         4.84174849770697   -1.95328542159854    3.41705133396417
C         4.96257497655979   -1.74086126906803    1.93888884751762
C         2.49385126317416   -0.95339586669055    1.05863536884648
N         2.71239066902258   -0.67071909260072   -0.35276209070300
C         2.80662563309011   -1.87807100268090   -1.16944536053068
H         1.39526411465337    0.03686458656217   -3.02833060947584
H         3.15937657253739    0.41726034812681   -2.84480986560390
H         1.88757390125817    1.66140306326570   -2.69371711398108
H         0.97420282238295    0.51164205597009   -0.81237670750545
H         2.08867148973035    2.60267537346652   -0.79698436071453
H         4.38160225136662    2.80694131554532    0.14929928415199
H         4.38166589560571    2.13304569907802   -1.51084061741201
H         5.98169481283719    1.11306429717020    0.22696422240541
H         4.87466941869897   -0.09876971570619   -0.32558395948401
H         5.18757017244824    0.91203376921924    2.40160262168178
H         2.72417488460706   -1.35022220789698    3.86704660157726
H         3.86698531394587   -0.05944191996913    4.18458790555260
H         4.60301210511947   -2.97435070223349    3.72107121546687
H         5.77464499042638   -1.65694296021758    3.90795834106908
H         4.64903708569056   -2.62082769119643    1.33427646791101
H         5.92602003210857   -1.34972274771295    1.61278818593241
H         1.70164971329763   -0.37524855807518    1.55562830990411
H         2.25338181953792   -2.01991274337522    1.12192927798865
H         1.84475011279260   -2.36293814871757   -1.38482383524831
H         3.47369847985385   -2.51208862034608   -0.57697749584522
H         3.26114485325041   -1.73357965538738   -2.15162518730609
