37
 energy: -49.587253454134 gnorm: 0.129557285168 xtb: 6.4.1 (79825abcba525fcdf90b791dcacef51065a7a4e7)
C         1.94051651010989    0.44566991731246   -2.31173402800448
C         2.04792022549885    0.44166850558445   -0.78034154583495
C         2.86639907021394    1.68635944914985   -0.33362127918443
C         4.36015840500150    1.31883888085728   -0.45809446853314
C         4.97340923051961    1.59746514297578    0.92490714148852
C         4.18281582399129    0.95687639565515    2.05677791297799
O         3.00753320888597    1.81867525560548    2.20769782503918
C         2.35862811738099    2.10716247275986    1.01938533201734
O         1.35400543393746    2.81716337180525    1.07558306124792
C         3.79510763594153   -0.57001036032723    1.93763468211081
C         3.79869116935330   -1.31917786805543    3.41253804341667
C         4.77492338174903   -2.36139084684718    2.84973481186702
C         5.05924804732501   -1.55679113170053    1.61828599851383
C         2.50630904579664   -0.97083995142860    1.13320604445501
N         2.74956390733396   -0.73520416152355   -0.28277817593609
C         2.68057710967910   -1.93158197486982   -1.11792571658472
H         1.47466186249007    1.38539104806420   -2.62464545499839
H         1.29025716901042   -0.33194923755982   -2.73543759176569
H         2.91810591534621    0.32764694347954   -2.78556317690095
H         1.03663585848114    0.51419657857507   -0.36984376709447
H         2.53993727571640    2.56634496867751   -0.90456038198134
H         4.77643261930558    1.92317709297284   -1.27797588515909
H         4.39999568706714    0.25123306820453   -0.68128566595184
H         5.02799754461813    2.68297320390438    1.10119562754655
H         6.01689422047639    1.27905243049484    0.85174656304330
H         4.73933699681468    1.09497995772696    2.99083748955400
H         2.81896458619017   -1.77026879494042    3.59134417306273
H         4.14898017732471   -0.70257737066453    4.25204802006171
H         4.30660366714130   -3.33281582634161    2.67941858699764
H         5.69045602485485   -2.58606937035349    3.40689183713095
H         5.05424684994928   -2.04608729759853    0.61890254587532
H         6.00299359123582   -1.04747618228227    1.81193514372455
H         1.57674042035965   -0.52082816123882    1.51034150351095
H         2.42883819803215   -2.03223995148476    1.39150478871370
H         3.22327277043292   -2.83193518473997   -0.79928158864037
H         3.18037636114503   -1.70287189927903   -2.06443250850424
H         1.63962658111635   -2.19330365890507   -1.31809177740613
