37
 energy: -49.576764170399 gnorm: 0.141361529084 xtb: 6.4.1 (79825abcba525fcdf90b791dcacef51065a7a4e7)
C         1.80340790826167    0.46902777718389   -2.38572130438065
C         1.98204086796250    0.45153115942252   -0.86109065682141
C         2.61332325709372    1.77253330141840   -0.33653561092539
C         4.14589901848244    1.92641233772762   -0.43356476833238
C         4.94569233224111    0.94232935194714    0.43724746760190
C         4.28791504306517    0.79960670902227    1.80234183321045
O         3.18911693849310    1.72072441580049    2.10391805250325
C         2.32361381138306    2.11850790390119    1.09939732521469
O         1.37757959462506    2.84759004602838    1.39937177552943
C         3.79682612955055   -0.69535843163478    1.94307875546751
C         3.67935538848527   -1.22224070812419    3.50679242029867
C         4.78908170806799   -2.25872353557327    3.28274879232078
C         5.14898445228817   -1.61413241092068    1.97903881865410
C         2.61044180164078   -1.03754255285455    0.97139265002980
N         2.83991217988644   -0.63702309510282   -0.40941725019817
C         2.83113888957737   -1.88997505002828   -1.16014016623854
H         1.19745351929221   -0.37347866303797   -2.73358921991583
H         2.79087669121558    0.18662936955156   -2.77586232039386
H         1.26540245560055    1.32868785773083   -2.79273383527235
H         0.97815960031231    0.43307025368628   -0.42710171497869
H         2.25787545572468    2.56079807206236   -1.01419243782968
H         4.32890336532124    2.94332382376481   -0.05525949714573
H         4.44212307897693    1.89305277552230   -1.48347997054287
H         5.93388154489251    1.41454167142965    0.55075021338906
H         5.05038357226263   -0.00396298839001   -0.10049838828001
H         4.98544794908882    0.89622222047215    2.64220432453878
H         2.69821982978406   -1.61801136273343    3.78257755204732
H         4.01006715743988   -0.41551013769490    4.17574016234384
H         4.56285664776907   -3.32279812712404    3.19020178892526
H         5.59075963549566   -2.04263962554631    3.99669883002271
H         5.27912234067914   -2.38737087506742    1.18950132762626
H         6.06218514106617   -1.02050598048709    2.01410345451964
H         1.75510489235946   -0.49115848868879    1.39412523359663
H         2.49162316528019   -2.12536083537670    1.01409457221459
H         1.85628761917670   -2.38706071920058   -1.25636595679287
H         3.48130516162742   -2.60472069090334   -0.64593671747991
H         3.29833230062865   -1.76384768422942   -2.13889697922884
