37
 energy: -49.579513435986 gnorm: 0.152981695809 xtb: 6.4.1 (79825abcba525fcdf90b791dcacef51065a7a4e7)
C         1.86047593541951    0.53770373770943   -2.36996052077704
C         2.03692077432083    0.40769270154394   -0.85052680523465
C         2.88670540437530    1.60875253272895   -0.34649957021714
C         4.40544501522260    1.36215492049188   -0.46692150165152
C         5.08920203201428    1.63679847280562    0.88343025071935
C         4.29546425580565    1.00459738962417    2.01781353463382
O         2.98273895570125    1.62685224502603    2.20837713925969
C         2.38565909329553    2.00227188457225    1.01718237568951
O         1.36481843661163    2.66958303426098    1.18778819019412
C         3.99957540190973   -0.53795384532962    1.84786831178031
C         3.71889266136908   -1.25798752437332    3.31052802168339
C         4.75353015085724   -2.29532920595982    2.85289038062848
C         5.37154775004870   -1.42633226632288    1.80047127807341
C         2.73196296850368   -0.98372085315159    1.03348384482480
N         2.67907861995111   -0.82558829633600   -0.41285835477481
C         2.13731635968214   -2.01640709246539   -1.06246954060612
H         1.30550806466322    1.46904751282687   -2.52035781651015
H         1.28219670251237   -0.34431136887092   -2.67768758729218
H         2.82668285510368    0.63071908607614   -2.87187371640994
H         1.01914194945721    0.45537365358359   -0.45263537820346
H         2.63045643998288    2.50725308762003   -0.92438924035336
H         4.80406910931796    2.04300262224116   -1.23390237406979
H         4.53882364415910    0.32089162815303   -0.76552553974311
H         5.17435910365564    2.71350516569729    1.09752421022521
H         6.09387868057291    1.20569948320573    0.90288630206158
H         4.85140834557201    1.14252707285548    2.95224238068724
H         2.70203913415364   -1.65839797613014    3.34213831348950
H         4.03960347458593   -0.67858498523290    4.18751880681615
H         4.24224520680703   -3.19503729478331    2.50488100500406
H         5.40484268418566   -2.59029809412933    3.68228157423900
H         5.57946850503500   -1.92061918202555    0.82545720863916
H         6.12814956431568   -0.79038433148010    2.25947158076948
H         2.02867116035345   -0.36878398363305    1.61320177137729
H         2.70880168522239   -2.02698366713788    1.36568285531800
H         2.64513874588416   -2.87866038953830   -0.60934236207940
H         2.55246588255719   -1.91038388688930   -2.06964015700296
H         1.05128056775392   -2.11945102702930   -1.10775630563666
