37
 energy: -49.583154975714 gnorm: 0.140261117804 xtb: 6.4.1 (79825abcba525fcdf90b791dcacef51065a7a4e7)
C         1.96434152890388    0.57687636782771   -2.35778217694497
C         2.07448111651511    0.46019153566464   -0.83103124409797
C         2.89535178512365    1.68732698015558   -0.34212218217003
C         4.39173953438344    1.31604880608704   -0.41182203943944
C         5.10391331419288    1.46016745768173    0.94406914965829
C         4.26663850388857    0.85396897381453    2.06121622673315
O         3.09588007560355    1.73129502352555    2.14113498125947
C         2.33375132274232    2.00370610452712    1.01804050259252
O         1.28255130389647    2.62255731377053    1.18694244921301
C         3.77029096018121   -0.63974481085723    1.92573877491055
C         3.74961406887962   -1.29898175202331    3.44283594216082
C         5.00460391086893   -2.09722658350412    3.06363891494095
C         5.11090640330288   -1.54208220313815    1.67612246782181
C         2.52843711690920   -0.93541462014644    1.00968749480612
N         2.71104968396789   -0.78742667677069   -0.42713561677283
C         2.29961436040399   -1.93738720090554   -1.22829865948965
H         1.39685032931970    1.47506056769401   -2.62089583106905
H         1.37543223164987   -0.18864819971378   -2.88143420214553
H         2.94213893265887    0.64652635462628   -2.84067516862444
H         1.06546285228319    0.29900447446177   -0.44069077815051
H         2.64714377767086    2.48899685063969   -1.05109429266088
H         4.85672666139279    2.03398738218082   -1.10396768746118
H         4.53765115144159    0.30117689998229   -0.78589193990187
H         5.18822336444082    2.49867005225503    1.30014419621428
H         6.06362210803230    0.94395694059279    0.85414820065017
H         4.74565927118793    1.03031028112347    3.03111237543985
H         2.81717150079039   -1.80665664219809    3.70386446060475
H         3.95427125236500   -0.57556735664964    4.24437359439251
H         5.00966113366230   -3.18714045981860    3.12735411666311
H         5.81694427000315   -1.77646456963971    3.72418360035118
H         4.97297701320735   -2.23353390706132    0.81526646382557
H         5.97477832816257   -0.88759827617714    1.56239716289071
H         1.66401742015378   -0.38526962695890    1.40838369533386
H         2.22797735359353   -1.97137074941266    1.19891949686734
H         2.75645190914482   -2.85199657367195   -0.82645576329436
H         2.68562458203658   -1.77422316633430   -2.23941502436759
H         1.21252450413694   -2.03164929257466   -1.26693792346307
