37
 energy: -49.570280740460 gnorm: 0.141909164661 xtb: 6.4.1 (79825abcba525fcdf90b791dcacef51065a7a4e7)
C         0.92364508872997    0.49291153114644   -1.26765053096153
C         2.13331503578711    0.38191272977419   -0.32898533711079
C         2.94016122169649    1.71063062748261   -0.28176164825169
C         4.46431424498899    1.68991639919986   -0.52344395862833
C         5.24006778582991    0.85524520745765    0.50996449950925
C         4.38543250719758    0.62097169727753    1.74739641852280
O         3.44627043247513    1.68668412615880    2.10655501112217
C         2.80593941558018    2.35030041745920    1.07409249011509
O         2.19248695915603    3.37811476956977    1.36357463403626
C         3.81645289234830   -0.85196103629395    1.69613966440200
C         2.73271911300111   -1.07463770232547    2.92599367661480
C         3.78882453624900   -1.92211977071991    3.64876624174457
C         4.74988035283785   -1.92771492288663    2.49940650326901
C         3.53978397188958   -1.51752929026973    0.29998610007117
N         3.08139149719081   -0.63617981710323   -0.76434837612246
C         2.97327440731440   -1.47037791273047   -1.95849018768111
H         0.06886776620631    0.82156999836469   -0.66819307057375
H         0.59524389035115   -0.47105797090274   -1.67992339701357
H         1.13233993723642    1.14412402151805   -2.11999627809272
H         1.80037069538141    0.17960616675355    0.69311295507957
H         2.44382404311218    2.38321724705460   -0.99464305411700
H         4.69065401123935    2.76638729771109   -0.49707836029017
H         4.78734832279281    1.41439688717069   -1.52888985768206
H         6.07079583958765    1.53043447736775    0.76763795705615
H         5.59956850866097   -0.11131624171931    0.14648377797950
H         4.96742032054540    0.58303906620069    2.67535493053842
H         1.84051956559371   -1.60128792060871    2.57679696497275
H         2.47153727023941   -0.10086997270182    3.36329907995301
H         3.45148283920936   -2.90999369241600    3.96861488726206
H         4.06045943075105   -1.33766784637442    4.53405424174764
H         4.63838140208019   -2.81643730791384    1.83914628655395
H         5.80607668398087   -1.70384636193491    2.64735763338786
H         2.76140077156203   -2.24500966178911    0.57152154782800
H         4.44437673269948   -1.99848073486483   -0.08690866779089
H         3.96405454344470   -1.49797608687626   -2.43207399460868
H         2.24550623645171   -1.12513796019803   -2.69953374270474
H         2.73545131398646   -2.51818751331809   -1.76438222005933
