37
 energy: -49.582161001903 gnorm: 0.123164604384 xtb: 6.4.1 (79825abcba525fcdf90b791dcacef51065a7a4e7)
C         2.34360803840005    0.61333185098651   -2.48260214660314
C         2.15468131328573    0.33038406047029   -0.98561793911430
C         2.51188145149824    1.65652852415080   -0.25591182549063
C         3.99027284035749    2.07820376350977   -0.39167182616942
C         4.92760420318820    1.10117411459191    0.33855115861711
C         4.38298989461528    0.77363524761735    1.72153231667004
O         3.29682088132696    1.69081834156605    2.07618055170004
C         2.24434175702894    1.90859376692170    1.20368366748522
O         1.18999315285872    2.41756093129860    1.58555750038349
C         3.89464652906889   -0.71819518229183    1.90002230675959
C         3.64071733399483   -1.20168275537663    3.46154862961000
C         5.05685871512408   -1.79368538180217    3.45372657536427
C         5.15228273469047   -1.76158255482468    1.95888509072177
C         2.64204307720626   -1.02111483846397    1.00113639062053
N         2.82371824209942   -0.84045790816398   -0.43206480365106
C         2.38459981235652   -2.04484129245899   -1.13219774224039
H         2.72835463002246    1.63442646492460   -2.56830957167744
H         1.37572633609520    0.63404652094125   -3.00205318382484
H         3.00094483877066   -0.06617164122507   -3.03060566419235
H         1.07163628145044    0.20409316196564   -0.89884885353872
H         1.94715424451920    2.46850695897876   -0.73413506566086
H         4.06608106200212    3.08883735783746    0.03679904761597
H         4.26563139875666    2.07152054354304   -1.44775728146582
H         5.86612438586530    1.67141368481875    0.41850093854327
H         5.03249368487659    0.20297970874316   -0.27613987144524
H         5.17649198792916    1.11332271035358    2.39697481349950
H         2.81351180612421   -1.91315219353656    3.53127013882538
H         3.43790279659131   -0.35029794327477    4.12614304150705
H         5.08653456469006   -2.80841113761359    3.85553305591068
H         5.81664848572158   -1.19105829506723    3.96231728559414
H         4.91626039181076   -2.77109420626356    1.55467880638603
H         6.03238482592519   -1.36283013900306    1.45492657835412
H         1.82272270249454   -0.37298671280442    1.34389528776315
H         2.33803271337353   -2.05428266514224    1.19971099529171
H         1.29453036772590   -1.98779477704324   -1.00897895162439
H         2.79199618335852   -2.91442094565272   -0.60699100058725
H         2.70402032043470   -2.12145805481539   -2.17346768958588
