37
 energy: -49.564696999224 gnorm: 0.159891599700 xtb: 6.4.1 (79825abcba525fcdf90b791dcacef51065a7a4e7)
C         0.71390328565050    0.37456201570941   -1.17492133407982
C         1.97946346302003    0.29544352127395   -0.30958201286146
C         2.79689120534225    1.61331985322039   -0.19238171082371
C         4.25237662481090    1.58368835368969   -0.70479366628723
C         5.25659454630064    0.90305894385464    0.24108823615474
C         4.67562995130466    0.59474001359225    1.61365623304525
O         3.74714371823734    1.64606997840374    2.03719128388190
C         2.81493406687678    2.21562367541703    1.18690720723913
O         2.11986311702634    3.11158909832914    1.66716599287770
C         3.95221604370932   -0.80801228083970    1.68332878019033
C         2.70955659266476   -0.89693036856911    2.77167421298414
C         3.56275783162116   -1.89264824744095    3.56953275853993
C         4.77630033905379   -1.79173663123380    2.69671042245722
C         3.68891201216046   -1.55394444477401    0.32574718288714
N         2.71556468476059   -0.93678789281562   -0.56387137747403
C         3.14466245081241   -1.19019957552464   -1.93690016731509
H         0.05497806187320    1.13735693293557   -0.74834031301982
H         0.26022308122034   -0.62561595545643   -1.20444693985064
H         1.03149042870728    0.64815580803149   -2.18408403815231
H         1.66861300887049    0.16031516985680    0.73040699190335
H         2.30350807271763    2.37352286922642   -0.81333880442141
H         4.58376165305202    2.63050416740901   -0.77603304548154
H         4.30497812773407    1.07772685072915   -1.67041238939020
H         6.10100180873314    1.57277127258876    0.46658111451589
H         5.78879979088293    0.05372448855630   -0.19593419892176
H         5.38824042732504    0.63003467372386    2.44563959133319
H         1.73356561453991   -1.25201068419609    2.43009199726807
H         2.69506882039811    0.09770072902099    3.23876591226054
H         2.97970306658652   -2.81112233412511    3.47760910651017
H         3.73743769721969   -1.53015149082921    4.58795676598216
H         5.09169284668863   -2.68043718791466    2.10599734963043
H         5.56040336366889   -1.17381353287624    3.13364389713694
H         3.43261345457480   -2.61027106889149    0.49104903682508
H         4.69040871405466   -1.58667489411769   -0.11609328619624
H         3.31019338359783   -2.25648326320743   -2.14263583501428
H         4.16539529768021   -0.80806844157629   -2.03721439990756
H         2.57093819928531   -0.70905684432618   -2.73156036993178
