37
 energy: -49.584239208424 gnorm: 0.146483448508 xtb: 6.4.1 (79825abcba525fcdf90b791dcacef51065a7a4e7)
C         2.12955374116779    0.52409875284113   -2.42452014190868
C         2.07656631269151    0.42566084087138   -0.89343660344261
C         2.90571639559480    1.60427356671159   -0.30853976977444
C         4.42342618120183    1.37903948468421   -0.47499833935897
C         5.08906347604040    1.66129696899883    0.88281619036320
C         4.30849603074446    1.02792403721361    2.02565322313795
O         3.03760522521809    1.72954040903072    2.22398208879407
C         2.36399912208032    1.98759923218531    1.04243661451831
O         1.21424291197044    2.41504379358670    1.15142274697867
C         3.87746270347737   -0.48901129944104    1.93071454171627
C         3.85743496571020   -1.27319527002520    3.38716882889273
C         4.86766897747923   -2.29556294583403    2.84848870417032
C         5.10845022791838   -1.51152410670089    1.59469650323841
C         2.60906916006990   -0.85258650663138    1.07762458807207
N         2.70113372068852   -0.78462372371335   -0.37379321104666
C         2.06563626402243   -1.96682088489918   -0.95007727653319
H         1.57844952312968    1.41805123938516   -2.73297274213359
H         1.54099250586966   -0.34974490968313   -2.73604285521125
H         3.19155221544841    0.56530689181884   -2.67865723154240
H         1.06301754396374    0.44458604651874   -0.48255275324190
H         2.61523690166874    2.54912847903388   -0.78790823650089
H         4.87937554797778    1.92615230418694   -1.31374272773037
H         4.60094933087511    0.31686793274079   -0.65236970926097
H         5.19552075076295    2.73983059232935    1.07728295809794
H         6.13145899577359    1.33151437053604    0.89878670528795
H         4.89519882953874    1.09677212562398    2.94885171891898
H         2.88050201648207   -1.75520700936526    3.47982694950825
H         4.17281143684832   -0.69803400565720    4.26887329090237
H         4.44238554615102   -3.29664283577179    2.75377588712444
H         5.76266284201226   -2.33783420217433    3.47801513971457
H         4.89752674879608   -2.05720100676652    0.64814959738065
H         6.04358371979560   -0.95236357129631    1.57414877844106
H         1.80240523225076   -0.19329763777814    1.42900912724074
H         2.37969678099140   -1.87314742249476    1.40186779627593
H         2.61876308766942   -2.88860854906844   -0.72414191843484
H         2.14623821517861   -1.97094496198041   -2.04162160268949
H         1.04693301204234   -2.08245703603802   -0.57455809013335
