37
 energy: -49.578397968589 gnorm: 0.157240964103 xtb: 6.4.1 (79825abcba525fcdf90b791dcacef51065a7a4e7)
C         1.94516968203358    0.58246283857928   -2.33525989146327
C         2.11072598368717    0.37079185594718   -0.82380330500281
C         2.84736143411641    1.64834788458940   -0.32989950780372
C         4.36085400252528    1.49874082078386   -0.59227298567789
C         5.04432822990580    1.56849385310397    0.78409909467029
C         4.33043972060022    0.94384378157864    1.97435066660442
O         3.12282585860186    1.75274950081214    2.15902234513555
C         2.32886380951409    1.97011042511178    1.04602289987808
O         1.28085793708813    2.57209093328608    1.28230524551177
C         3.83718082957492   -0.55685570062457    1.95215468861490
C         3.74818133258974   -1.27548093220801    3.43952202471608
C         4.83403380955748   -2.27358183096946    3.01442944845363
C         5.07466626772607   -1.59557610573321    1.70024085762921
C         2.59969457278581   -0.98878216526067    1.08564507493848
N         2.82007402077633   -0.80806287386949   -0.34210907582620
C         2.39554782696877   -1.98468977677592   -1.09634850845364
H         1.24774843868753    1.42029347129593   -2.43351140341177
H         1.49101056597561   -0.29559897170129   -2.81463493048108
H         2.81829604315105    0.87695612728237   -2.92266825720836
H         1.08768484708796    0.43462699553369   -0.44199611703186
H         2.51848360592923    2.44153067154423   -1.01519047355412
H         4.75435031074043    2.38207529923131   -1.11724468568509
H         4.60748980376927    0.54866145856485   -1.06945583012994
H         5.19641197215722    2.62249125595856    1.06400135592063
H         6.02954971264839    1.09516776423023    0.75408078227696
H         4.98070538810124    1.08900954470069    2.84460187533755
H         2.71483830407736   -1.56579595402535    3.64746001770917
H         4.08559076406899   -0.54717608255104    4.19012344368418
H         4.38749417084369   -3.26797591031644    2.95294588594618
H         5.62905432868125   -2.45701834551689    3.74477034784769
H         4.90206665917212   -2.19449642377747    0.77844539790322
H         6.06748281579183   -1.15901376275374    1.59400534956608
H         1.79860459966981   -0.31664497419576    1.42524198728622
H         2.46107024825549   -2.06917041486531    1.19893436776004
H         2.89815195893452   -2.82574706105629   -0.59965916655387
H         2.54958738702409   -1.90368614037481   -2.17694691894024
H         1.31287183790229   -2.07374168283846   -0.98668921881605
