37
 energy: -49.580098885169 gnorm: 0.148616358965 xtb: 6.4.1 (79825abcba525fcdf90b791dcacef51065a7a4e7)
C         1.76008933922824    0.59392984555512   -2.31314991328292
C         2.02124589677356    0.51332762378512   -0.80251593952165
C         2.71917075044534    1.80903344179539   -0.29975415090729
C         4.24739233545693    1.95489718390033   -0.45832406134164
C         5.01548097875327    0.86062682904301    0.30260618375095
C         4.43504048764562    0.63612984034414    1.69156740447055
O         3.38860825888701    1.59280679634671    2.06104286881180
C         2.48014186252948    2.11255748462484    1.15498696959915
O         1.50738691693658    2.66803464476116    1.66657187793761
C         3.73111356437962   -0.76163717257176    1.90750773553541
C         3.47034066620061   -1.12112990010685    3.50104694315282
C         4.77169315032708   -1.93424576456664    3.46486670596057
C         4.88048276171730   -1.92298817538001    1.97063597155368
C         2.52512545349684   -1.08666096326682    0.95423766336163
N         2.74896109224755   -0.69342741269394   -0.42958798611105
C         2.90906669087752   -1.79796813846618   -1.37187585019326
H         1.31850785984854    1.57678967030103   -2.50550966005976
H         1.07697958968118   -0.23548799609809   -2.54223632114270
H         2.60196526277914    0.58103219074413   -3.00971512715409
H         1.00702723783770    0.61843304832357   -0.40656371854259
H         2.22494747925421    2.58468074199034   -0.90061842984946
H         4.66999834784166    2.93763154728251   -0.20073572074333
H         4.46174690986182    1.80731254225148   -1.51825536889456
H         6.05337597578283    1.20295882249494    0.43665112969211
H         5.04326999102177   -0.07738269955561   -0.25861208692339
H         5.22373311490787    0.74762727555865    2.44442062606467
H         2.52867862938535   -1.67640929763280    3.51705441396044
H         3.33919846592625   -0.28306102547929    4.19970125708594
H         4.83610250862750   -2.81848021093410    4.10203100306001
H         5.46787139188796   -1.21331219242925    3.90610933061143
H         4.47362071432592   -2.86294208089174    1.53571876597430
H         5.86487276982223   -1.59959062532512    1.63307456708251
H         1.64851195681095   -0.55712767556874    1.35421625889150
H         2.29664524737896   -2.15555745456356    1.02166921028914
H         3.38829927671536   -2.56408870101464   -0.74730881941706
H         3.73401343458351   -1.56318631536858   -2.05181927238776
H         2.03232736009370   -2.20452458904103   -1.87999264779637
