37
 energy: -49.577415721002 gnorm: 0.152033558130 xtb: 6.4.1 (79825abcba525fcdf90b791dcacef51065a7a4e7)
C         2.14995037792768    0.66784716053164   -2.51480855537272
C         2.06388672254743    0.50111595971125   -0.99115891790091
C         2.61240434815050    1.77095784809370   -0.28027772001538
C         4.13601790801473    1.94123801831314   -0.45772699065998
C         5.04122662023097    1.02821631281704    0.38689786666641
C         4.43933550509616    0.69496598402102    1.74454090728305
O         3.34985103517372    1.59061218870188    2.14153559522636
C         2.37706909655717    1.88594142525935    1.20192653267343
O         1.42236096475836    2.45118856004767    1.73629927706207
C         3.83314652747754   -0.76150971475991    1.82885825556112
C         3.46041656626977   -1.16078495792397    3.39034997820428
C         4.83833575271909   -1.83169284001777    3.47523835461789
C         4.95279692858263   -1.94286795356880    1.98553162804875
C         2.54330757912886   -0.97010032446885    0.95617442674100
N         2.78439237356802   -0.64057325013570   -0.44132279646053
C         2.60296889489529   -1.88198206583485   -1.18934695226487
H         1.74823067981814    1.63820063452237   -2.82310277836543
H         1.42681412327345   -0.03877457777060   -2.94470754709981
H         3.16292953524678    0.58511039640947   -2.91624643692620
H         1.01712005488758    0.43494789387155   -0.68072997060985
H         2.15273429934089    2.68740541646401   -0.67493016651346
H         4.36170693299722    3.00242858981546   -0.27427818318050
H         4.33166715581654    1.89385745262904   -1.53041517080671
H         5.97968164935811    1.59099913370225    0.50922085716247
H         5.12230914543787    0.09543135889686   -0.17784801381178
H         5.23300341314704    0.60459668047497    2.49499433538279
H         2.69475118122033   -1.93829072352204    3.45787879579479
H         3.27900933644235   -0.23508557199994    3.95412975394737
H         4.90044991359409   -2.66338280736927    4.17981701727790
H         5.67019812050687   -1.25857298059015    3.89790020488335
H         4.58961440913715   -2.91225676682418    1.57738113395873
H         5.91822674940877   -1.76531380773721    1.51226939165641
H         1.74916976455126   -0.37005389889522    1.42321727491450
H         2.26960855166832   -2.01582372917009    1.13179144201702
H         3.21163506416642   -2.65905764797583   -0.70730172432836
H         3.03889372291326   -1.82367228470118   -2.19162047284999
H         1.55132174080623   -2.17297330361492   -1.15055189433432
