37
 energy: -49.571358036492 gnorm: 0.160278123971 xtb: 6.4.1 (79825abcba525fcdf90b791dcacef51065a7a4e7)
C         2.26110610717686    0.55365738959858   -2.35420384402015
C         2.15433783416460    0.39380266784128   -0.83112752369298
C         2.68500196759854    1.75973800243487   -0.31022608153433
C         4.20132551119254    2.03809558429532   -0.38207178094154
C         4.91439464164960    0.95238020737467    0.44203812191428
C         4.25295000743164    0.75683454732376    1.79879020213870
O         3.16155381420675    1.65905175923679    2.17511686511433
C         2.30065546098214    1.95422662947576    1.13198933023080
O         1.26024646351135    2.58468440854258    1.32329607848500
C         3.75123425307029   -0.73948383246855    1.87096050859122
C         3.67159865001398   -1.25744494350763    3.44003003772615
C         5.09640790056374   -1.80819589121148    3.28977459364078
C         5.13674892940605   -1.60544233362763    1.80587736288502
C         2.46310583590306   -1.07682747047323    1.03687654437851
N         2.79128141220374   -0.82977678952578   -0.35989659959068
C         2.29383470032956   -1.94777739010598   -1.15750044416553
H         2.14492939488002   -0.36699819973566   -2.93464002580864
H         3.31051900667438    0.79052285565572   -2.57709571592229
H         1.67927496967927    1.39704770444708   -2.73405884928747
H         1.11784926901720    0.26821390090662   -0.50496235899741
H         2.11767794249954    2.51977832496121   -0.86466760526110
H         4.31025657839583    3.03729999804753    0.06563234574881
H         4.69340640444406    2.03386290528119   -1.35624935432663
H         5.97852119819126    1.18521796984001    0.60268214859011
H         4.90732277017248   -0.04486952663793   -0.00634007396954
H         4.90541815593251    0.97806321816873    2.65119790603182
H         2.85507875319719   -1.97726649688979    3.54235806409418
H         3.68218619349497   -0.40402875242130    4.13230474880345
H         5.29064693176526   -2.80937029054443    3.67954180942723
H         5.76400437120487   -1.07744729653448    3.75820372944424
H         4.92943817706261   -2.50508968591902    1.18470111026229
H         6.01411609371530   -1.14574101353305    1.35149986352192
H         1.56234964257303   -0.57105850283834    1.41327476908179
H         2.44809806035881   -2.16449177938411    1.16356930760003
H         1.19934492336573   -1.93217086392074   -1.24989703516903
H         2.62603303016718   -2.86411930146080   -0.65956021678772
H         2.85420448699650   -1.90955930691232   -2.09380583064667
