37
 energy: -49.586127639639 gnorm: 0.135669989248 xtb: 6.4.1 (79825abcba525fcdf90b791dcacef51065a7a4e7)
C         2.01169974987369    0.51783765603201   -2.39967681533814
C         1.98148790159733    0.38102338184122   -0.87092452321386
C         2.51775725336481    1.71295056943184   -0.27334002737097
C         4.02825478587307    1.88420558823217   -0.53970585765728
C         4.98100547754651    1.09520616202209    0.37470575743151
C         4.38617488516934    0.89204983555254    1.76086136760005
O         3.21741305326889    1.70525160440979    2.10649406902112
C         2.21714864543967    1.95236566522780    1.18194283549357
O         1.17827433602241    2.44047571263350    1.62805370321429
C         3.86349319486533   -0.58983007256341    1.92435977422993
C         3.69500675489939   -1.07656784584182    3.49639774415075
C         4.86991994927292   -2.05070190933872    3.33322141761045
C         5.06327364722872   -1.70027073087527    1.88944174918191
C         2.61825110763011   -0.91126123771853    1.02168277692975
N         2.86945705797127   -0.67121624244187   -0.39217097445821
C         2.87567332783578   -1.91336591571408   -1.16066040374587
H         1.50033732038707    1.40854175662666   -2.77804776734351
H         1.45236997333086   -0.33373740657128   -2.81080159277472
H         3.01470435672722    0.50658297683304   -2.83324297039860
H         0.94888731440291    0.15562103777701   -0.58915404717850
H         1.93020370173639    2.49097620338560   -0.77968001557387
H         4.21602440882298    2.96617506754209   -0.47043076145298
H         4.25581321928075    1.61427265541668   -1.57243856552144
H         5.94885416062383    1.61071275836677    0.47424029797320
H         5.33864077542882    0.14897195507534   -0.04043019534101
H         5.09091380576009    1.12015367554578    2.56867780163390
H         2.70105641019349   -1.45802173222523    3.74514355080179
H         3.93818441394334   -0.26377210768298    4.19489848058790
H         4.44284718969678   -3.05544887343995    3.32374203006106
H         5.70051091638886   -1.93283617776471    4.03701877733393
H         4.92832846505632   -2.58198458582332    1.22417976081490
H         6.02729896820875   -1.27415191281627    1.61261094701108
H         1.69193903160906   -0.52886274850537    1.47396247768839
H         2.56305680562429   -1.99498531470347    1.16928242428073
H         1.92078813225199   -2.41614816268657   -1.36582578942295
H         3.45011853582360   -2.65314741161048   -0.59434005517824
H         3.38136312701294   -1.91514722275956   -2.12834699744211
