37
 energy: -49.578734778359 gnorm: 0.129102589775 xtb: 6.4.1 (79825abcba525fcdf90b791dcacef51065a7a4e7)
C         2.48836312460529    0.34396680231842   -2.36950062444422
C         2.13027672931388    0.40174594195166   -0.87780688469602
C         2.83724831372358    1.66785253678233   -0.31576826202698
C         4.37363088179005    1.60298936471629   -0.44692942600654
C         4.95251506917489    1.75685302217774    0.96997624479513
C         4.18013264886320    1.00583980155980    2.04511709446047
O         2.94648701364696    1.78053691773895    2.20236258713760
C         2.25068055924555    2.00935590707634    1.02767772744813
O         1.17332374912695    2.60575095569002    1.03957087688853
C         3.91977464889433   -0.55003487834439    1.95930571831916
C         3.96999343490121   -1.43626601805064    3.35525598499360
C         4.93929582633745   -2.40525510217177    2.66424387875778
C         5.06419746877525   -1.58447385995364    1.41708505672904
C         2.55961578278152   -0.85054584745006    1.23237200140459
N         2.64389023175728   -0.79340001985596   -0.21998492262871
C         2.02784637682719   -1.97304481145965   -0.82204688751495
H         2.37473766717172    1.34613273868655   -2.79466248581748
H         1.78300562985180   -0.30390357318103   -2.90782046906683
H         3.54003223959908    0.08104619457943   -2.50730250433814
H         1.04052458760437    0.48395635167952   -0.83147620769653
H         2.49563706734986    2.53976892461691   -0.89021307702865
H         4.81613851032130    2.42448367920422   -1.03006621811205
H         4.66503185436609    0.65614495835095   -0.90491919230767
H         4.96653878653575    2.82288828199661    1.24521690466053
H         5.97322983534867    1.36476189072975    0.97241818247315
H         4.71204740205968    1.21067595319448    2.98126053930530
H         3.01588424757695   -1.96679188500278    3.41472696324675
H         4.26508142139738   -0.98079842302526    4.31084371349880
H         4.73431855728775   -3.47468190060613    2.58482031447678
H         5.86459261297148   -2.33199283764768    3.24524552097970
H         4.73612685152517   -2.16563066830436    0.52667533613110
H         6.01811750811233   -1.05776113247783    1.40413815320233
H         1.73925679920519   -0.23620904873667    1.63041852725369
H         2.30417509795866   -1.86773556295863    1.54759426269029
H         2.24427988425017   -2.96484887150064   -0.40232101274897
H         2.34973252770317   -2.02734145037965   -1.86675923131016
H         0.94223817140833   -1.85823349062573   -0.80165370570071
