37
 energy: -49.573112109216 gnorm: 0.149608413097 xtb: 6.4.1 (79825abcba525fcdf90b791dcacef51065a7a4e7)
C         1.97435221680609    0.62552996110065   -2.40956657181115
C         2.02211900856629    0.53570706580315   -0.87778177651365
C         2.69192830986576    1.81675596490537   -0.30420410997658
C         4.22758897721259    1.83388961419754   -0.45696087926522
C         4.90319000415047    0.86720071497264    0.53070224020228
C         4.21716764048495    0.59878236779002    1.86256118431988
O         3.11210666204070    1.52281772964276    2.13044588195848
C         2.36421419903849    2.12367183686697    1.13243763306962
O         1.48558590654847    2.92487454393181    1.45276984763604
C         3.60604889096082   -0.85770923495866    1.89515067001503
C         3.53623191541949   -1.41129151695893    3.45248075565921
C         5.00427085488375   -1.83295786807058    3.30067868251777
C         4.83258656413262   -1.93617857031979    1.81590348314589
C         2.29527153957685   -0.97411304159839    1.03661439152237
N         2.71986159001053   -0.61014162050451   -0.30761645414453
C         3.22871081893760   -1.66393547189817   -1.18176829283065
H         1.19346129234918    1.31968980404334   -2.73569750469474
H         1.82977512517017   -0.42289766292281   -2.70444019629882
H         2.88730404276710    0.90179187321842   -2.94278588933531
H         0.98819840296369    0.46896272357793   -0.52704229281869
H         2.23670133835108    2.63462417097201   -0.87934171781238
H         4.67970541555331    2.82490729646299   -0.30143239018737
H         4.43519834664439    1.62950688532025   -1.50877337922492
H         5.92368855241829    1.20841213888934    0.76424612074268
H         5.09459714289231   -0.08692367801205    0.03209416976191
H         4.85670630664155    0.69928172561903    2.74695130832332
H         2.89214080221285   -2.28529558557616    3.58125328713172
H         3.40042211379905   -0.70398753787801    4.28251228988935
H         5.31223677945220   -2.79197598988536    3.72191341053162
H         5.71164773510820   -1.06387125095692    3.62813576012522
H         4.32528369342549   -2.85638790816766    1.44975921733971
H         5.53102584948736   -1.75788195446273    0.99862124965778
H         1.57067319471482   -0.28694238022242    1.49660714246917
H         1.86646182492161   -1.98117874909014    1.00153125107764
H         3.74966392206146   -2.35012345466563   -0.50026812124903
H         3.90130629511883   -1.30993641330597   -1.96934856512355
H         2.38883570829437   -2.19156320135356   -1.63823457872973
