37
 energy: -49.570858175943 gnorm: 0.148434027767 xtb: 6.4.1 (79825abcba525fcdf90b791dcacef51065a7a4e7)
C         1.75990782962739    0.55261241860779   -2.26750815977437
C         2.05757428928627    0.41901462547729   -0.76742122235763
C         2.81762995642944    1.74034091590753   -0.45898261791405
C         4.33349916723925    1.45804946881893   -0.52481543687858
C         4.97975404293663    1.60690981728269    0.86320395880381
C         4.19866277274935    0.89526074105988    1.95863781437417
O         2.99154717930674    1.71561466369724    2.08769087199910
C         2.38651742944354    2.15433873252894    0.92242289779757
O         1.38418670792326    2.85845607481918    1.04922227626830
C         3.96556517319139   -0.66672237067380    1.91656438139929
C         3.81627033975851   -1.33896301875383    3.42069478942778
C         4.74039169337938   -2.45516571197357    2.91465528713663
C         5.31991137508016   -1.58020683679600    1.84540727893291
C         2.71752603051165   -1.04384111409246    1.03966566545650
N         2.82442978127504   -0.75999430470891   -0.38431152759982
C         2.34393029027044   -1.95166758865500   -1.07899527093082
H         1.40380094438613    1.55413775932547   -2.52855374124194
H         1.01658974109216   -0.21935104250346   -2.50959101702373
H         2.73871691565392    0.47834192980502   -2.74765522255207
H         1.08952674531240    0.36275840328872   -0.26127498728093
H         2.55013634162696    2.52883598823022   -1.17567359002190
H         4.81426268019636    2.14439489308608   -1.23791489330424
H         4.57161629867932    0.45447842563516   -0.88164715959719
H         4.93135166503927    2.64432970595833    1.22899413343373
H         6.01832904311626    1.26970826364207    0.80613270390800
H         4.61938138047244    1.02754091613072    2.96200888998661
H         2.81107150703715   -1.69679151581223    3.65913326205588
H         4.29219839295000   -0.74532123690594    4.21363708754180
H         4.19636273932868   -3.37244197824195    2.68091566455119
H         5.52579508946314   -2.72644030533218    3.62785652956424
H         5.46560172082653   -2.02829556669505    0.83734287209838
H         6.08793699054170   -0.95035627078621    2.29371775549087
H         2.00217767340302   -0.37174055376971    1.53504145996078
H         2.61834044663927   -2.11335119606505    1.25320802918312
H         2.98194911164733   -2.77176084968470   -0.72252984670526
H         2.65253832766980   -1.87062722083786   -2.12597962568110
H         1.30717778741454   -2.17459541475485   -0.81901425236971
