37
 energy: -49.578658773211 gnorm: 0.132293318022 xtb: 6.4.1 (79825abcba525fcdf90b791dcacef51065a7a4e7)
C         1.63613390935105    0.48059010728840   -2.25552002679570
C         2.02513421801761    0.45401646355547   -0.77070116464984
C         2.67501648307166    1.80942655668949   -0.37165404087940
C         4.18744911310502    1.86403479885989   -0.67405661635326
C         4.95110780575173    1.03231096527020    0.37067466533761
C         4.35816839527735    0.87474640356096    1.76355641125141
O         3.21835698543690    1.73417869552616    2.09366151188493
C         2.35255367339918    2.08586768231073    1.07234436553302
O         1.25472674352875    2.60935456664250    1.26538240193661
C         3.92703679920757   -0.62793570853767    1.99152118797247
C         3.61510292734154   -1.20019794153687    3.51198753327899
C         4.57600838547656   -2.35890267206566    3.21190628982066
C         5.20378018566828   -1.64774519935098    2.05223176106791
C         2.67690456149009   -1.02478587726898    1.12639060328543
N         2.80726143807518   -0.67428517493218   -0.28068607034783
C         3.05413806097292   -1.79476503523480   -1.18463697615096
H         0.96404295650163   -0.37488911995348   -2.37576540454357
H         2.52374231054995    0.42950994305489   -2.90096220546081
H         1.20778342704753    1.45863508582072   -2.48804616673896
H         1.08859584383738    0.42609134375625   -0.20627148194977
H         2.22486948023686    2.61774639302865   -0.96403057974157
H         4.60534145803643    2.88127063136545   -0.63783966768140
H         4.35962592997338    1.59773541688791   -1.71838570880181
H         5.98434499911473    1.40608969479429    0.44205825332044
H         4.98425704752184    0.03031850229182   -0.06580246005629
H         5.12162585386038    1.15366960975413    2.49880483880476
H         2.56702128265596   -1.40536082425377    3.74597874398192
H         4.01420416555773   -0.62552643248832    4.35942273373723
H         4.03328046615560   -3.25619849272778    2.90809042686970
H         5.15071185483384   -2.58122477106953    4.11710970198845
H         5.36765173738504   -2.17366995310794    1.08540586911908
H         6.11976972391979   -1.13050094209171    2.33679968546192
H         1.80870676232683   -0.52389577143296    1.57825482642293
H         2.63440132709845   -2.11521262143925    1.21833035752580
H         2.17876760323019   -2.44870160410166   -1.07157908559412
H         3.92383344078903   -2.43990334559011   -1.02523437982441
H         3.09936762812214   -1.35106156078178   -2.18124331832958
