37
 energy: -49.579882463918 gnorm: 0.128070911647 xtb: 6.4.1 (79825abcba525fcdf90b791dcacef51065a7a4e7)
C         1.77020171333899    0.82306189856914   -2.29834878878753
C         2.00716561439525    0.56171233126764   -0.80427416455072
C         2.85703876441777    1.76467114559622   -0.30494680023149
C         4.35550786923916    1.45450495317686   -0.50561846437855
C         5.07720247581805    1.24925757416020    0.83730111317623
C         4.22764888440807    0.65977385036251    1.95412290398504
O         3.08651111456218    1.54699650138189    2.19371389062571
C         2.45790899976495    2.12084862117311    1.10195276376361
O         1.50842327516994    2.86027176805887    1.36321208360122
C         3.73817299807767   -0.83602258816088    1.81663745884142
C         3.55076659826056   -1.21262989332167    3.41652823773912
C         4.92003418204497   -1.90477516501750    3.37151811140913
C         4.91631321399116   -1.96844971116547    1.87464834475430
C         2.53680072858471   -1.21550728871565    0.87777240654421
N         2.69578455517715   -0.67770042277898   -0.46580354511568
C         2.78599841978798   -1.72377818830791   -1.48125083672093
H         0.99917524355730    1.59963350849467   -2.31990405865713
H         1.42418466712138   -0.06288539606116   -2.84827883844486
H         2.72554626249052    1.02960917067038   -2.78699952288282
H         1.02120040478947    0.57326321487463   -0.33077234227586
H         2.59031697936990    2.61105247683227   -0.95257430276916
H         4.73618971466306    2.35028498140043   -1.01881813204282
H         4.47534132081291    0.57290032605503   -1.13775507798156
H         5.32260775392064    2.27634041128138    1.14917024278172
H         5.96427818569164    0.65763171729126    0.59507070989058
H         4.83788702337758    0.62483298248652    2.86387245310650
H         2.76859338738295   -1.97647158430910    3.42488156009258
H         3.40427990617991   -0.43245121297278    4.17648773468771
H         5.08494963539481   -2.83604721137208    3.91698371943805
H         5.67417988613850   -1.20340010286914    3.74359564337216
H         4.52504456741489   -2.94769156532957    1.51940579325423
H         5.90369710435363   -1.70135078966684    1.49876462906000
H         1.65250862935234   -0.80220746641683    1.38378656536868
H         2.46944969491870   -2.30764924019511    0.83327851219870
H         3.36134094929560   -2.59664674924254   -1.14395273777251
H         3.22322945062661   -1.38726363886446   -2.42653897822214
H         1.81433947257010   -2.18708810221474   -1.66391309597915
