37
 energy: -49.568303629523 gnorm: 0.141939142643 xtb: 6.4.1 (79825abcba525fcdf90b791dcacef51065a7a4e7)
C         1.19066449698269    0.55743121430976   -1.82936365425638
C         1.94437613461640    0.36600250838437   -0.50573671610760
C         2.69662982832693    1.71633287514776   -0.33414309190678
C         4.19887020691884    1.74518666350755   -0.68673800471275
C         5.00303853785237    0.84790386579142    0.26960893637613
C         4.39455102908137    0.67265211916319    1.65364400290818
O         3.48391805978782    1.74627550104394    2.05965349711224
C         2.60047770011625    2.19088042382948    1.09102103416026
O         1.79836956209416    3.08521539426594    1.36178602369756
C         3.82608731629567   -0.78486769792421    1.87360050328154
C         3.16705926202844   -0.98427158788140    3.37776964484241
C         3.98476965560546   -2.27495884162108    3.52426479502229
C         4.96134968546793   -1.78026856975437    2.50139609556675
C         3.00218415397548   -1.53812397753631    0.76790610560202
N         2.86127524108042   -0.76623685237104   -0.45848834107391
C         3.47012981011687   -1.31031143717849   -1.66961565283812
H         0.29167015741725    1.15625604074602   -1.65264945085382
H         0.79998929028872   -0.32974564134423   -2.34641642517492
H         1.75294613123216    1.09662116387069   -2.59567826358182
H         1.26985071113504    0.20622476372630    0.34040234981833
H         2.18122319294733    2.52477512923517   -0.87052018318445
H         4.54810567752952    2.78859821093554   -0.68030714020057
H         4.32726331242542    1.45231475302566   -1.73025357031693
H         5.93244052189768    1.43316430338536    0.34750265776361
H         5.25191895361819   -0.10196523141072   -0.21143916649427
H         5.23597240724236    0.68567199548228    2.35585212447129
H         2.09087379293243   -1.17699033408503    3.37599562312251
H         3.47090337965340   -0.30551483842120    4.18687012215761
H         3.53607267682033   -3.22085747837138    3.21451610294965
H         4.51164084300137   -2.36126389284760    4.48033100683032
H         5.42793938442738   -2.50439145050596    1.79702180382554
H         5.78674609150522   -1.15804790496577    2.84653314076540
H         2.06150733106779   -1.93134551645758    1.17941977825878
H         3.58524487649566   -2.42449889686584    0.49648464770544
H         4.29893266097543   -0.67819171692084   -2.01631299279584
H         2.76400471770872   -1.29308675840921   -2.50572171381209
H         3.80804801987319   -2.34195562258357   -1.55272152588492
