37
 energy: -49.576853389668 gnorm: 0.151410991221 xtb: 6.4.1 (79825abcba525fcdf90b791dcacef51065a7a4e7)
C         1.81554389398722    0.64976923618012   -2.28128368141703
C         1.94730199930085    0.41963613275970   -0.76920132739214
C         2.65998863828430    1.71081935229631   -0.27559646403155
C         4.14914731831764    1.71288703554706   -0.68091607364868
C         5.05328175778664    1.06124782009783    0.37941869816794
C         4.40127416925494    0.76589376663268    1.72261465618057
O         3.36550270059631    1.72026611446502    2.12648863420777
C         2.37708486816188    1.94603756100697    1.18391413764297
O         1.27972257325451    2.29465761360066    1.62070495257822
C         3.78821125334293   -0.67589387960960    1.92583414305392
C         3.53766556281080   -1.06426111747879    3.51423033119005
C         4.78802331311229   -1.95301153710879    3.46214492980407
C         5.09773969105578   -1.64978897268657    2.02798341935856
C         2.59297316193629   -1.05349618616470    0.97841977339060
N         2.81593722880729   -0.69620408604583   -0.41525803175553
C         2.86675388290750   -1.76046192620185   -1.41441936372096
H         1.06089008270087    1.40051369625877   -2.53601941104653
H         1.39852241268315   -0.17485199337201   -2.87554488614906
H         2.72203774325810    0.99057230911537   -2.78749183117307
H         0.89231586419395    0.33617119907190   -0.49261018878581
H         2.15046758790856    2.51647398803715   -0.82170282604944
H         4.55711451500618    2.71338825003736   -0.88894132004889
H         4.25384990222640    1.11433135932189   -1.58753172743108
H         5.80202913225883    1.78853223955267    0.72987554943327
H         5.48426149990736    0.12309201401888    0.01925180410130
H         5.11882050977027    0.78327922268690    2.55091454171763
H         2.60673662319356   -1.61883448896604    3.65962123530247
H         3.48759781006875   -0.17245044900616    4.15441976672844
H         4.56944006979388   -3.01835595934186    3.55837429130191
H         5.56075193035884   -1.68810130229421    4.19140308807067
H         4.97312937340505   -2.51022146546524    1.33348271050322
H         6.05174699023498   -1.13816277968699    1.90281924277502
H         1.74985970002625   -0.56611166591756    1.48876830143496
H         2.42631842726860   -2.13327689815060    1.05318430674557
H         3.32519673130680   -2.59413968939094   -0.86532910793998
H         3.62301736671603   -1.55388424905558   -2.17820853549299
H         1.91999462427833   -2.12048693876031   -1.82206085292961
