37
 energy: -49.581135629093 gnorm: 0.140950139654 xtb: 6.4.1 (79825abcba525fcdf90b791dcacef51065a7a4e7)
C         2.25829486994449    0.51306151214894   -2.38758782625455
C         2.08840870373554    0.44299732723267   -0.86346703377885
C         2.64782265231253    1.78259182993402   -0.30555600252846
C         4.12370619662615    2.16622897228265   -0.54319471968317
C         5.02724884891659    1.26738819484389    0.31825668557296
C         4.43840102466259    0.81859100963385    1.64805464445374
O         3.25803977952001    1.55887833969107    2.10135952719255
C         2.29043034343142    1.84969611208331    1.15502646466996
O         1.19396153121682    2.22852443395105    1.56827146164448
C         3.94191626000984   -0.65986585965436    1.90017383908786
C         3.81032077286103   -1.00352223057312    3.51299362066419
C         4.46185349567175   -2.36571180456361    3.23744076250147
C         5.00860188806938   -1.89899239121350    1.92293455070117
C         2.60506307697042   -0.84735761285785    1.09615765546367
N         2.81424042090891   -0.70666213273521   -0.33777333546046
C         2.60338317919120   -1.94762095534223   -1.07879350179232
H         2.07262296570465    1.52401375326996   -2.76376786461695
H         1.61653829922594   -0.18688789517215   -2.94010280259487
H         3.31451793452193    0.35837184112835   -2.62122958796886
H         1.05759884533818    0.37147739571188   -0.50460669232199
H         2.07909745063886    2.58521861944887   -0.79470336910098
H         4.24057649223684    3.19610003871312   -0.17384211616991
H         4.34861503406256    2.04681669322675   -1.60448647931958
H         5.95834367614754    1.81678710219667    0.52708320697274
H         5.22338157918856    0.41504320810099   -0.33797499443405
H         5.09417757707138    1.04711709572876    2.49598662775237
H         2.83905897865794   -0.94803382938276    4.01188277972301
H         4.47672413526279   -0.26685723381375    3.98300086786544
H         3.67465378903967   -3.12202463089916    3.21997672823780
H         5.18009110060802   -2.60133367744407    4.02972952682096
H         4.78528832036395   -2.58409450064550    1.07501404248418
H         6.00895392645271   -1.46709318954841    1.94071767631147
H         1.86249406492769   -0.06733925705793    1.31752213242024
H         2.20515958930060   -1.83186920585477    1.36092935591916
H         3.24703275326425   -2.75377360516483   -0.70127304396813
H         2.95039945371997   -1.78997450052858   -2.10481006960598
H         1.58557774837202   -2.34185937943550   -1.10691576248378
