37
 energy: -49.581713905277 gnorm: 0.144979409513 xtb: 6.4.1 (79825abcba525fcdf90b791dcacef51065a7a4e7)
C         1.72239062118996    0.57881133186888   -2.29120911286582
C         2.02190617366825    0.41572754417135   -0.79440966353886
C         2.84019844586876    1.63706153765310   -0.28700138990582
C         4.34065574690314    1.30190754724465   -0.42184033212012
C         5.11806441994869    1.54655463316350    0.88283823472089
C         4.21670874147458    0.95348239335873    1.95631229631571
O         3.01941505424534    1.75736690750819    2.21519608057354
C         2.33125596914006    2.08052482064926    1.05830572676678
O         1.39334921278054    2.86300436342630    1.21509493636085
C         3.91740624106226   -0.59436859454211    1.85398331357375
C         3.76067323560676   -1.25118050362219    3.36416131455666
C         4.80851028942207   -2.30492959330393    2.97992822341299
C         5.20724124334925   -1.59103089976928    1.72452005224164
C         2.65098147642912   -0.97201623355192    1.00408793687831
N         2.78373962864394   -0.77305730501507   -0.43205239864332
C         2.48145272109789   -1.96954058733683   -1.21346191690389
H         1.33692538082226    1.55375913688888   -2.60569795835410
H         0.92676494929950   -0.07120449075797   -2.68045541827899
H         2.60928024708486    0.42479331331651   -2.91074907538945
H         1.03769065274587    0.41429847657824   -0.31714393791042
H         2.54312744481532    2.50208694159098   -0.89560892618797
H         4.83625491126780    1.91694220676408   -1.18788749751937
H         4.45753802798536    0.27945743933443   -0.78532043473936
H         5.34685338798905    2.60849380463986    1.06263271349238
H         6.06306811888840    1.02265961039374    1.05047493417230
H         4.70900806893314    1.13921260042793    2.91777023512641
H         2.74395475833203   -1.62168853549404    3.52012980057909
H         4.09924990292265   -0.60380881575996    4.18510668381249
H         4.33865498298200   -3.28244828546246    2.85466586189988
H         5.62531886830787   -2.34397857438476    3.70821616997759
H         5.27208695969574   -2.28613800524955    0.85801894408137
H         6.11122515551955   -0.98656088076375    1.79513476077495
H         1.78921675323311   -0.44210360255670    1.43466169236773
H         2.45914675273841   -2.02859806339981    1.21885338836264
H         3.09751381606911   -2.73553201839437   -0.72314118372580
H         2.86609047635482   -1.90086603934218   -2.23587098229672
H         1.47939769449508   -2.39801604509050   -1.28007417371957
