37
 energy: -49.579823063838 gnorm: 0.138825114898 xtb: 6.4.1 (79825abcba525fcdf90b791dcacef51065a7a4e7)
C         2.47029285330772    0.45710425722436   -2.35846711282879
C         2.02798037864291    0.43318692987357   -0.88860245642695
C         2.54762848672051    1.79704090597856   -0.35139648220727
C         4.06402101421000    2.06871833410914   -0.44427769731099
C         5.01320278624478    1.16817394080352    0.36471942874680
C         4.39961534200467    0.94589489836084    1.73971970990330
O         3.21227078665619    1.73805147561471    2.07057339073756
C         2.22556753058672    1.90855226704724    1.11467831764431
O         1.06534155241584    2.18925455553311    1.41734656042288
C         3.91243340528015   -0.54465589662691    1.93157377163137
C         3.83447168303589   -1.16184684635739    3.46441492443918
C         4.73738902889495   -2.33206956356951    3.05052633984170
C         5.07490973708788   -1.67936328227061    1.74486877631523
C         2.55728994264868   -0.86191708047097    1.20239402366381
N         2.66801990761998   -0.70506609471814   -0.24081249811795
C         2.53199226650084   -2.01431298414470   -0.87399454175693
H         2.10667827665739    1.37673268663461   -2.82759172291614
H         2.08881287021603   -0.32789531040889   -3.02577675788721
H         3.55541131936127    0.49581011198549   -2.48152926450437
H         0.93418869159957    0.44129066447929   -0.89294534163528
H         1.95905293916266    2.57289406301887   -0.85987849057079
H         4.13951764550439    3.05486686973437    0.03793155318278
H         4.40724057899505    2.21748156227912   -1.46958413918433
H         5.95850149609312    1.72256820993814    0.47168949751423
H         5.00661958209097    0.20355610916039   -0.15012923883227
H         5.09832203812181    1.29517475019278    2.50852932549943
H         2.81654155146458   -1.41698888884204    3.77107371245512
H         4.35331249044409   -0.44242585747813    4.11319317747905
H         4.29182436092617   -3.32705009648304    2.99150663367763
H         5.54172386910766   -2.43055983133055    3.78703807845978
H         5.00275126088788   -2.39706390368927    0.89757779936041
H         6.00059966717635   -1.11077085475657    1.83064851666416
H         1.70105752168710   -0.28089237344790    1.57403351596333
H         2.22223818443630   -1.88981802960599    1.37689294540761
H         3.19531083260879   -2.74762547529474   -0.39550752092269
H         2.85975359987317   -1.96051314808954   -1.91690430607777
H         1.51671712271447   -2.41539265251716   -0.89622439594957
