37
 energy: -49.563590912323 gnorm: 0.134230873245 xtb: 6.4.1 (79825abcba525fcdf90b791dcacef51065a7a4e7)
C         0.88700035855391    0.48118468063870   -1.12932966624759
C         2.19732532504539    0.35671183898834   -0.33922240604056
C         2.95925930689196    1.71231781844241   -0.31661285314575
C         4.46786003995509    1.62864914503064   -0.63126389733254
C         5.28449128984037    1.39837868032343    0.65189296254450
C         4.50971978629157    0.77371580675442    1.80343484985377
O         3.35151044801216    1.62236124877569    2.09518022356429
C         2.69894607740744    2.26683661463214    1.05826145598102
O         1.88842997617026    3.17473145376557    1.24618913617982
C         4.03046931778862   -0.72845906328011    1.70501963204195
C         2.88552679134678   -0.99769237543517    2.86830152187882
C         3.55132963858850   -2.34747672616394    3.16958789698919
C         4.83561904851762   -1.85300497876548    2.57731616892399
C         3.67556986051292   -1.44249985769632    0.35114973486145
N         3.12033594860465   -0.68861180606591   -0.76378369464635
C         2.82867245303373   -1.64746258290251   -1.82636924510056
H         0.37802537611763    1.44003175226221   -0.98944874903163
H         0.20978984032989   -0.31006632179940   -0.77952795611303
H         1.04956063223358    0.28151385316144   -2.19132319038344
H         2.00295394483045    0.20280580429144    0.72614021854750
H         2.53799051351898    2.33367786177640   -1.11871482721338
H         4.82177573312478    2.61321582554691   -0.97197869359492
H         4.61837631166940    0.85155219591068   -1.38269498016373
H         5.69500641552618    2.36852930817578    0.97231510993249
H         6.15607986859944    0.77141421215580    0.44489306742729
H         5.02928489294478    0.73982773818750    2.76788256999299
H         1.84285559142792   -0.87045094294723    2.56504384699926
H         2.99995676938010   -0.23870722041489    3.65476378006707
H         3.06882698675065   -3.00747354163792    2.44599073120465
H         3.63327823428039   -2.51457898956186    4.24869200343268
H         5.54440499315580   -2.53323748174874    2.05471760312983
H         5.44263298344559   -1.30286588277540    3.29595267156945
H         3.07043693594773   -2.34493244192916    0.51928411165853
H         4.64995840538041   -1.87032687392324    0.09265227028764
H         3.06857232719216   -1.17797271564841   -2.79006830641299
H         1.81331076965065   -2.05531114069069   -1.80023690267701
H         3.44665068633744   -2.52841504548992   -1.64152239693088
