37
 energy: -49.580702006146 gnorm: 0.145790094884 xtb: 6.4.1 (79825abcba525fcdf90b791dcacef51065a7a4e7)
C         1.89271160293247    0.65614477611314   -2.36733048350204
C         2.03874571373567    0.48744751377404   -0.84847244465449
C         2.67361433690807    1.79734184763244   -0.30089525542682
C         4.17471641102968    1.99564438048704   -0.59964352726418
C         4.96346027239985    1.03892740881864    0.31083896253523
C         4.39281725948710    0.75990447080553    1.69396443445751
O         3.23948465647636    1.56218276775535    2.10982110462756
C         2.30101217096836    1.90917549600586    1.15313165180584
O         1.24242400406375    2.30622650393697    1.64125845182119
C         3.81549499942634   -0.69856668223558    1.88226435861222
C         3.58372809225175   -1.01854240880223    3.48865919375876
C         4.73993198177339   -2.02705259054124    3.44300306122359
C         5.00713538609733   -1.81362154381971    1.98432663115741
C         2.55856101256054   -1.04467134481136    1.00528082025035
N         2.76684283133025   -0.68972650480330   -0.39126537815983
C         3.01209377494318   -1.83099260351718   -1.26928252097800
H         1.03611008999602    1.30996182794749   -2.55907776955335
H         1.68253632787214   -0.28342252936395   -2.89656870577446
H         2.76424331752211    1.18736418965615   -2.75766742532257
H         0.99407741526708    0.50226329137927   -0.52456900182966
H         2.01625667926538    2.53988094143709   -0.77358952243782
H         4.41860334598398    3.01244867530902   -0.25709043618798
H         4.34016532999570    1.69238920042396   -1.63494369331484
H         5.99937139353630    1.40067404599507    0.40256018135554
H         5.10552398371146    0.09862595575031   -0.22883791359934
H         5.13142626743604    0.91911508471363    2.48791935925105
H         2.65572323543616   -1.55493373816295    3.70408937249458
H         3.66188983372401   -0.12835896326477    4.12829951621583
H         4.58767361256272   -3.08259866204010    3.67674938120656
H         5.62524381921610   -1.68393426734285    3.98852774307168
H         4.92126842435969   -2.79202051078497    1.46129186917619
H         5.97527781052888   -1.36850692045977    1.75600540855527
H         1.70347245531355   -0.57626483775200    1.51347222390858
H         2.31515115302588   -2.10716020305783    1.11091694340189
H         3.76273583551367   -2.40425508886656   -0.70839466702124
H         3.44841607785810   -1.42838605582222   -2.18880060539157
H         2.17677467204084   -2.51760882702203   -1.42075146870104
