37
 energy: -49.579584588277 gnorm: 0.142667541254 xtb: 6.4.1 (79825abcba525fcdf90b791dcacef51065a7a4e7)
C         1.83961615666280    0.49307095858232   -2.25365415966712
C         2.09123398669062    0.48568153592853   -0.73927364150819
C         2.87633386403481    1.77443489912809   -0.36316849710985
C         4.39657261524813    1.57729483312738   -0.54175118930551
C         5.06576265610273    1.47872438680590    0.83986783912666
C         4.21865396755932    0.88900812845352    1.95842266377384
O         3.07472731306829    1.77798830188749    2.17730471193760
C         2.39710104815803    2.12287598300009    1.02047093875179
O         1.31315325011892    2.69759592885128    1.12667984632298
C         3.85940709092616   -0.64738050659008    1.87875126873096
C         3.76105692076063   -1.30110830799025    3.39518521913407
C         4.87225861787439   -2.30038921459741    3.04496648766794
C         5.10176291862383   -1.69439268728410    1.69412105817123
C         2.57087983476864   -1.02361557828952    1.06210184907259
N         2.76301294354093   -0.74955761067963   -0.35482636508706
C         2.41900106319735   -1.93228579627810   -1.13991255883116
H         1.15106757978865    1.26471771836768   -2.61208413244241
H         1.25302512541857   -0.35892612466895   -2.62387760698772
H         2.76528321369361    0.63570016906239   -2.81661235907574
H         1.12692489998272    0.58846611159702   -0.23330118286954
H         2.56375550050946    2.53518928498262   -1.09150275295466
H         4.84463416234545    2.40680370584749   -1.10908733102104
H         4.69968226191423    0.73388702636705   -1.16462459629576
H         5.28970490908173    2.46417091024589    1.27705232913028
H         5.97474027742516    0.87132450040667    0.81924969648561
H         4.76299498342781    0.96957803306977    2.90629240596387
H         2.76020137349791   -1.71208013869458    3.55237669904550
H         4.02102952814180   -0.59467365005166    4.19583488175912
H         4.39587344331209   -3.28249636739035    3.06777364215103
H         5.75546002879124   -2.23411494347824    3.68891322253654
H         5.05842163014473   -2.41606234742228    0.84823840625081
H         6.05262375493768   -1.17709757393168    1.56831649288258
H         1.84808121929474   -0.30048675528345    1.46643645678848
H         2.29941268558652   -2.05123490476325    1.32590865729320
H         2.94749547178512   -2.78841747277711   -0.69898083982250
H         2.78834262287046   -1.83423230491827   -2.16556114517849
H         1.40499554609906   -2.33540612175909   -1.10210374508946
