37
 energy: -49.574791161138 gnorm: 0.123215113843 xtb: 6.4.1 (79825abcba525fcdf90b791dcacef51065a7a4e7)
C         2.09759230807085    0.60562345973262   -2.46309470788116
C         2.03275101287905    0.46616359866082   -0.93565861701398
C         2.56609506427459    1.78043341783749   -0.29772362721021
C         4.05137251280056    2.15685957153793   -0.48248323913477
C         4.91620370783392    1.07737791342998    0.19070987588529
C         4.48419094133735    0.83922110619118    1.63056043205175
O         3.32735450510044    1.64325327921536    2.03308376218636
C         2.26976267956606    1.88810999007028    1.17405293264034
O         1.18411155045464    2.29620338714625    1.58799444081324
C         4.00964242009612   -0.64640612751082    1.88277333807113
C         3.69348035245790   -0.97936890126931    3.47204426028225
C         4.56886336486621   -2.24017531936467    3.47955803209776
C         5.14237474228348   -1.78999075189018    2.17070130193451
C         2.77111646173968   -1.01477494328579    0.98883293809602
N         2.79766656044398   -0.66434526486041   -0.42403738363962
C         2.67866315892568   -1.92879110317178   -1.14553953436052
H         1.75274495952264   -0.27641850463792   -3.01181337980273
H         3.11757476417956    0.83266940128348   -2.80241666775424
H         1.51428170249093    1.46769382965065   -2.79582272876372
H         0.97894727010089    0.47326485275574   -0.64255106140631
H         1.96487780242643    2.55664552685713   -0.79062912060860
H         4.19721759212463    3.09867710795798    0.06744709727314
H         4.20325818900409    2.21731488019588   -1.56158443035364
H         5.98797631253499    1.32783034592530    0.22173121808152
H         4.66542004192374    0.18103056238438   -0.38310981502050
H         5.29735267811141    0.94640928802687    2.35756413509659
H         2.63264427918935   -1.09143853526720    3.71159812655550
H         4.15614108748659   -0.21880562874406    4.11637656537432
H         4.09057084876447   -3.21746950314974    3.38939259462228
H         5.33064167020135   -2.41240730717022    4.24710891791323
H         5.28401064321226   -2.63594706462508    1.46182880787436
H         6.15069477693231   -1.39760313429844    2.30062441269286
H         1.89255170903294   -0.57001069733242    1.47786088028021
H         2.48561834296064   -2.06309427685900    1.12597269524167
H         1.70760672628567   -2.36476871915993   -0.87413304024122
H         3.45352619033374   -2.58931711287307   -0.74394848952812
H         2.84752268745598   -1.91147659437096   -2.22411700091009
