37
 energy: -49.582954140237 gnorm: 0.128967234442 xtb: 6.4.1 (79825abcba525fcdf90b791dcacef51065a7a4e7)
C         1.53755685178827    0.44361496016475   -2.23972021915358
C         1.95105976490051    0.43933314583195   -0.76130503719657
C         2.69189657517075    1.75589263000899   -0.39177288797174
C         4.23144760803932    1.82087090806101   -0.47804141683397
C         5.07990248103290    0.97296111860659    0.48506599670228
C         4.38617780880969    0.88276357997328    1.83678112203436
O         3.27551198558799    1.82167948365846    2.01460583146669
C         2.32364955648046    2.05449638946309    1.03677997059343
O         1.23975993846187    2.57136306092330    1.30983360798236
C         3.87852797817215   -0.61016816559670    1.93343702550285
C         3.68212125127112   -1.12971125839135    3.49167451750969
C         4.60550392580296   -2.31315052178001    3.17101792666558
C         5.09338319219844   -1.70387512541697    1.89217285904310
C         2.59446766778983   -0.88427809785134    1.07040490238726
N         2.79884570455782   -0.67500545649426   -0.35582895371485
C         3.11165261070699   -1.86111401560976   -1.14882879351585
H         1.20202158254192   -0.56464720489360   -2.50208140919185
H         2.41498376793432    0.71103600187166   -2.84441969381370
H         0.78957147824042    1.21399241247764   -2.44260190548804
H         1.02169752348535    0.34504252741257   -0.19221814790120
H         2.41561923034019    2.53732767996645   -1.11285077929141
H         4.48663904319176    2.87175898885868   -0.27499956633742
H         4.49608712978171    1.65382431463830   -1.52362490373692
H         6.09871169259081    1.37180696765563    0.60890067237272
H         5.14795606992077   -0.04571766944569    0.09357873527509
H         5.03006488495003    1.12924021820025    2.68878721739725
H         2.67392651846039   -1.37606856087182    3.83543357050765
H         4.11839142689452   -0.39782061802331    4.18570620892842
H         4.03131283175614   -3.22433579172345    2.99201107433070
H         5.34119404330551   -2.53548103437467    3.95103946722095
H         5.10241675537666   -2.36938051663170    1.00041952898447
H         6.01815495428273   -1.12822599820439    1.92351980972130
H         1.75071947004650   -0.26086214535619    1.39946586667196
H         2.31541610859795   -1.92910953059569    1.24287932252159
H         2.23191873935080   -2.51865615863693   -1.12894910943088
H         4.02005815949845   -2.39937623446764   -0.86063471857563
H         3.32955935731678   -1.46764694843592   -2.14373733503692
