37
 energy: -49.571939536155 gnorm: 0.153177634746 xtb: 6.4.1 (79825abcba525fcdf90b791dcacef51065a7a4e7)
C         2.33371060302943    0.43299338233473   -2.42213347058066
C         2.08519167178189    0.46237073191801   -0.90750817615839
C         2.70182566074413    1.73157989740855   -0.25360245662876
C         4.21021350230626    2.01883048612246   -0.40895709890319
C         5.06892838478838    1.15722169311293    0.53265940734000
C         4.33938167701641    0.88031725951293    1.83941449400119
O         3.21402952241850    1.74415466723591    2.20565318811745
C         2.28643561630388    1.87308758088885    1.18617532576347
O         1.12668951735771    2.14505561340775    1.49850296603490
C         3.82252072265832   -0.61164501042134    1.89232270961786
C         3.71533314042567   -1.07502247945033    3.47674590472406
C         4.98531476891563   -1.90038385667537    3.22792876884023
C         5.14796701850227   -1.56230970897245    1.77743315844311
C         2.59612942481146   -1.01432434638369    0.99645144836101
N         2.60206655659153   -0.82027707850457   -0.44646879318661
C         2.28592802299984   -2.07029295624554   -1.13281211638316
H         1.86494514218618    1.31205801772723   -2.87547023098853
H         1.83048739770133   -0.44361096512484   -2.85269669744711
H         3.39807349962384    0.29472910295182   -2.62741166288913
H         1.01284685318846    0.66702800316396   -0.83926757554758
H         2.14557753062143    2.55678723359707   -0.71894548951967
H         4.31527116219202    3.10386523856050   -0.25936799712359
H         4.37284173460775    1.78147104377439   -1.46176099291325
H         5.99394860010399    1.74889640117213    0.61416954138211
H         5.32116798223455    0.26014691525920   -0.03938261719910
H         5.06113192206107    1.05786687867193    2.64490094667957
H         2.77744352643737   -1.57847079076744    3.72618868819579
H         3.88711718686373   -0.17577192681974    4.08462274633739
H         4.74239632550848   -2.96120816865224    3.31533513731013
H         5.78354496592801   -1.72968891832826    3.95785767100150
H         4.90295910702246   -2.40993993336222    1.09942344593761
H         6.04033287709117   -1.03971884323846    1.43371914491607
H         1.80330732386667   -0.34652770199116    1.36294887063020
H         2.41164269270427   -2.04629536170200    1.31313802774173
H         1.24387852309048   -2.38106782902069   -0.97711891564943
H         2.89769216737691   -2.87141443620381   -0.70627759923808
H         2.38135322669666   -2.02406705037170   -2.21950428956136
