37
 energy: -49.569661137345 gnorm: 0.135572101606 xtb: 6.4.1 (79825abcba525fcdf90b791dcacef51065a7a4e7)
C         0.99919216246074    0.50229689523131   -1.53843837079923
C         2.06894588723549    0.42655346151376   -0.43998293853403
C         2.81593638971133    1.78606936579811   -0.32843131951774
C         4.33696680949720    1.80226196064198   -0.58936447049659
C         5.08029862432820    0.79484022247372    0.30448218116636
C         4.48354690643162    0.55277035736665    1.68354448905189
O         3.46006933707961    1.54182323714088    2.03144006798738
C         2.68156193439765    2.21737118997973    1.10734568849239
O         2.00575385624361    3.17806744035996    1.47730828264513
C         3.91892395051682   -0.91848680248975    1.79534412531025
C         2.88797281941126   -0.98651993604221    3.08728682417105
C         3.88132524689187   -1.94187150265714    3.76296355115653
C         4.87006184679730   -1.94813007596087    2.63733121248183
C         3.43307069746740   -1.56876327694859    0.45003425305935
N         2.98296753143858   -0.69409675617148   -0.62331284458886
C         3.06865483095903   -1.32600120417809   -1.93743036729078
H         0.17795291801284    1.09552177305226   -1.12411934917893
H         0.54386369874236   -0.41875603694457   -1.92752825503992
H         1.37557103346743    1.11876118162541   -2.35845986142445
H         1.53523868105153    0.28443251294671    0.50416908202605
H         2.36677913698383    2.56695303460799   -0.95724106798238
H         4.64052796154831    2.81283428014703   -0.27742113603153
H         4.64005544025045    1.65357848945795   -1.62725366278693
H         6.02219462775850    1.35626382802301    0.40458570208061
H         5.32139213401011   -0.16118756539634   -0.16825963281458
H         5.29618518512668    0.62637904512737    2.41529340226307
H         2.00033776598307   -1.50468228721914    2.71455284360473
H         2.61249496847483   -0.05667946728801    3.60418546767433
H         3.57216680020519   -2.96896294115409    3.96668319533611
H         4.26575521027438   -1.55920909671088    4.71421929807322
H         5.04675033362469   -2.88813750388342    2.06867468454611
H         5.80508745672776   -1.44616977504804    2.88496061934439
H         2.62235873001711   -2.27566636761121    0.67779223240866
H         4.35115941899787   -1.99863488187645    0.03577175191040
H         2.73478709219649   -2.35912805340168   -1.77048785421642
H         4.10179854717323   -1.29374143781458   -2.29736932873552
H         2.48155264643018   -0.78055017196524   -2.67900765653016
