37
 energy: -49.576095352666 gnorm: 0.144322594013 xtb: 6.4.1 (79825abcba525fcdf90b791dcacef51065a7a4e7)
C         2.65883043896352    0.50544911654730   -2.45584591364864
C         2.22392008241011    0.33644730597348   -0.99331186429440
C         2.49333949329964    1.67206550790806   -0.24347235361913
C         3.97569722415943    2.07472705441567   -0.39300873165648
C         4.89985914233133    1.10143717149272    0.35867882855932
C         4.37905889770952    0.88340729207906    1.77209788855310
O         3.23020885190928    1.73341101084455    2.09520868834395
C         2.16935776266619    1.85800798786123    1.21460672509310
O         1.07797533772297    2.18116024967710    1.68469521424997
C         3.86645199841218   -0.60785695580696    1.86833249774463
C         3.75408782726414   -1.09801334403481    3.44431655953233
C         5.09231395566438   -1.82509382924142    3.25329429592589
C         5.02135076535830   -1.76017676709555    1.75815637531648
C         2.56061632226650   -0.96285003577831    1.06986850124875
N         2.80390488211256   -0.84169486769580   -0.36046033373847
C         2.27941808583293   -2.03201877413749   -1.02498503118711
H         2.39877988557562    1.55502726844937   -2.62546114716634
H         1.99631677863484    0.03250523622197   -3.19371663469089
H         3.71457200310438    0.31864828498944   -2.66712705219804
H         1.13608388573485    0.23359727030764   -1.04330272568526
H         1.87993336641303    2.49273656574711   -0.63990041071951
H         4.04944352788520    3.09807414639436    0.00452950911037
H         4.16942728297188    2.05538151611553   -1.46691650658544
H         5.86070581822872    1.63147232337172    0.44935230164439
H         4.95584641103968    0.16402539483829   -0.20143245441778
H         5.09104637325203    1.12182213114809    2.57052629411683
H         2.77408404091724   -1.55999833741385    3.59088151791240
H         3.91396763764576   -0.27388398080521    4.15348847950246
H         5.23128230796582   -2.80813151187325    3.70752130449868
H         5.84968010803630   -1.14489380229558    3.65681486269216
H         4.55549935106251   -2.62444519951750    1.23449084672850
H         5.92730255145073   -1.43322321280936    1.24834258402533
H         1.67137502494470   -0.54555552080072    1.56378631566343
H         2.51363024389019   -2.05131570316703    1.18088538690627
H         1.19477118310740   -1.90252990038312   -1.14101217013638
H         2.57941063742696   -2.93635209120133   -0.48631219863561
H         2.76244724435058   -2.14318836065693   -1.99785031123725
