37
 energy: -49.574481310367 gnorm: 0.128501799814 xtb: 6.4.1 (79825abcba525fcdf90b791dcacef51065a7a4e7)
C         1.92089787527295    0.52908411936872   -2.35921148202246
C         2.06222535337817    0.38378432440150   -0.83749239552040
C         2.53192684844781    1.75174014255887   -0.26582863703998
C         4.03035607214343    2.02400124020011   -0.51575982166383
C         5.05974705485667    1.13506531295494    0.20295411237156
C         4.44246672236837    0.82189820165665    1.55846679586943
O         3.36863227747483    1.73246622339719    1.96406358189191
C         2.25607372696995    2.01496772388162    1.19024472676006
O         1.32077441858505    2.56536968668862    1.77230918610980
C         3.95684609981077   -0.63885974866235    1.91379018320492
C         3.60976611295106   -0.97907919269913    3.49505262592518
C         4.55015447516596   -2.19154226264796    3.45520627031553
C         5.03373339145295   -1.85849166643166    2.07683182069728
C         2.74865017960359   -1.05845422547069    1.00111571623426
N         2.90251993942471   -0.72733343172156   -0.40827832174817
C         2.87632308783753   -1.93860776874623   -1.22416964214683
H         1.70011629172502   -0.40360791715246   -2.88774810610526
H         2.79827910007594    0.94679867089918   -2.87182264161090
H         1.04166028803228    1.16260520933095   -2.49962807963295
H         1.00732707988775    0.29331093179748   -0.56277620049524
H         1.92586637889836    2.50306275994100   -0.79035536180764
H         4.23432322376145    3.02501792557124   -0.10700876422799
H         4.33993512620252    1.92393730801709   -1.55755226541508
H         5.91210567217847    1.81635898936805    0.35029375200380
H         5.31175932898947    0.26868659063884   -0.41468474422036
H         5.14125815849640    1.08427190866922    2.36102911102026
H         2.56291354265490   -1.24465369667689    3.66501940598086
H         3.97621616696263   -0.14058275034579    4.10358663331870
H         4.07055565994797   -3.17234321071426    3.45866133884435
H         5.31414757962336   -2.21478842305309    4.23934819660160
H         4.78571828716621   -2.73528797714380    1.43814584808786
H         6.06931737680039   -1.58721059388190    1.87304335082738
H         1.79910474653191   -0.65901849679588    1.38537365293754
H         2.59622851190015   -2.13418944945180    1.13841570936243
H         1.85042087447741   -2.25632263359247   -1.45497361212961
H         3.37662949161234   -2.72358737676934   -0.64842385494758
H         3.42776862971029   -1.95566425083340   -2.16637958415049
