37
 energy: -49.578237105044 gnorm: 0.156349306454 xtb: 6.4.1 (79825abcba525fcdf90b791dcacef51065a7a4e7)
C         2.06405827485833    0.62802065551411   -2.31045425693037
C         2.12642121467517    0.36250401180400   -0.79971726799280
C         2.59310024058908    1.73460498871772   -0.23556155405074
C         4.09649614244006    1.99864653067016   -0.46351919554018
C         4.93808481613803    1.04441026813696    0.40109879212574
C         4.31331090330429    0.77994153116162    1.76353673889871
O         3.25402656469968    1.69745470368529    2.19114586762739
C         2.32460287719148    2.02091736802920    1.21752747960319
O         1.45569790050285    2.76470112315860    1.67394399745878
C         3.89232826165972   -0.74045217763219    1.84763495282291
C         3.50682219588062   -1.05088880364213    3.42612122266153
C         4.59441755144100   -2.13397920612552    3.43214008699421
C         5.11999714641563   -1.79738650684794    2.07009792893612
C         2.70832482766771   -1.20509868797633    0.92513233151947
N         2.91580195944274   -0.81559864163226   -0.46229384742980
C         2.69566886258343   -1.86117757179444   -1.45821381035442
H         1.66837575044559    1.61526089840337   -2.56891498733196
H         1.42090029375114   -0.08110940575718   -2.84946801562770
H         3.07535558596808    0.46450388480964   -2.69080217956059
H         1.08514866360293    0.16421803808313   -0.52971921474886
H         1.99339011079526    2.51628545028245   -0.72161368097431
H         4.32789754123068    3.02781196282734   -0.15049150254574
H         4.38116563261296    1.98840464475263   -1.51710443709529
H         5.94914683688161    1.48039014796018    0.40886977436554
H         4.96744848193714    0.07565806279154   -0.10511953480432
H         5.13047866121967    0.91200094817317    2.48190494167353
H         2.50362091028845   -1.42448501743106    3.64822903796872
H         3.74645762235318   -0.17609715395916    4.04659684687760
H         4.12671769870596   -3.11893067798878    3.37623920312883
H         5.35058489505761   -2.25414074818673    4.21500441905705
H         5.26181852028998   -2.56061450200979    1.27286975648579
H         5.96952794758305   -1.11625287876606    2.11382166784096
H         1.79163940896860   -0.68892687001026    1.24465400276329
H         2.57259563982155   -2.29142249295263    0.95284698204279
H         3.22618460733858   -2.78270615363542   -1.18248445077501
H         3.22993574097360   -1.60073466904505   -2.37729546762558
H         1.65236788982792   -2.05358937510944   -1.71636776934405
