37
 energy: -49.579604120280 gnorm: 0.137710772654 xtb: 6.4.1 (79825abcba525fcdf90b791dcacef51065a7a4e7)
C         2.07703949021616    0.39908648866231   -2.44782569877980
C         2.12515186468485    0.40945236143345   -0.91345540169682
C         2.72547706291849    1.70302641903619   -0.29297341453165
C         4.21348332816337    2.07235094458003   -0.46994401350386
C         5.10180595302431    1.19812661711904    0.43173072310364
C         4.47858069217322    0.88820496604406    1.78526762613907
O         3.40873285643890    1.84057290130145    2.09378703882864
C         2.38919071832961    1.90791911449071    1.15977014253202
O         1.31484516903147    2.40675091661640    1.49663011400849
C         3.93009515736975   -0.58683624768987    1.92423862645508
C         3.65877298173909   -1.10637326718408    3.47119378759608
C         4.54286232615859   -2.32387127089403    3.16776448089188
C         5.04994560640443   -1.77703797724519    1.86833103035306
C         2.66486412619129   -0.92681970419079    1.05684409607189
N         2.84493627409435   -0.73836097168397   -0.37555451362304
C         2.38715159392992   -1.93018685668141   -1.08515631390521
H         2.01642188670500    1.43316275967710   -2.80140974781236
H         1.23393840158370   -0.20323055284736   -2.81313132248448
H         3.06043094220031    0.03583652774908   -2.75623328991308
H         1.13634367699124    0.50491564811998   -0.45562362333198
H         2.17602321981127    2.47202032775354   -0.85303779366931
H         4.26099536483356    3.10968038364179   -0.10606948594187
H         4.36033327468073    2.03259030896786   -1.55070192232066
H         6.05342166416884    1.71361018274998    0.63443614783919
H         5.23729296933062    0.20799068712748   -0.01197431349888
H         5.19322235064291    1.04825651036366    2.60069787790950
H         2.61963502691800   -1.32338619146684    3.73275932396728
H         4.07511013859780   -0.37765507204257    4.18063633477673
H         3.88062106576557   -3.17873174548829    3.01727346919813
H         5.20993954738692   -2.60195949107594    3.99043047176763
H         5.01880530740568   -2.38766019125376    0.93861396060973
H         6.02144526704672   -1.29842337285705    1.98946661889274
H         1.76432881548083   -0.40920923840574    1.41733702784604
H         2.41270037536941   -1.98698059717065    1.16529799333430
H         3.12003919943908   -2.67298805284167   -0.74192066514542
H         2.30002493990809   -1.72021773177075   -2.15581247331065
H         1.35906353693438   -2.15459426131121   -0.79391936602160
