37
 energy: -49.576822239361 gnorm: 0.137307164325 xtb: 6.4.1 (79825abcba525fcdf90b791dcacef51065a7a4e7)
C         2.18189073836294    0.50746534267138   -2.41668568238689
C         2.12933882876115    0.42017178459881   -0.88491134668991
C         2.74010355581435    1.74025896315114   -0.33440394592886
C         4.26893896542074    1.67405689954538   -0.53480705496439
C         5.07064561343701    1.52162657658268    0.76919984998504
C         4.32501927874100    0.97050955152779    1.97619390990193
O         3.13669050792225    1.80157354353561    2.18588575859634
C         2.30004204571368    1.93763614292691    1.09140160644721
O         1.14953366756206    2.30756301172259    1.32806752384342
C         3.84011025188377   -0.53290146282807    1.95351287702158
C         3.67347547974832   -1.32606388948595    3.39564008915602
C         4.71004557252507   -2.33206667517252    2.87653939083541
C         5.10438134496547   -1.53131262948734    1.67321912915819
C         2.54640399816195   -0.82035610368053    1.10943614504143
N         2.79837536291152   -0.74649552018042   -0.32261255887620
C         2.54309802300527   -2.03173306830390   -0.96801815448573
H         2.52645762823761    1.49224241843258   -2.74759002026243
H         1.17699030517496    0.31368884817178   -2.81628455485554
H         2.86315351575406   -0.21513909163087   -2.87258960196425
H         1.07116989670951    0.37385520924202   -0.61178483588625
H         2.17805876559870    2.57361109385124   -0.77774707395047
H         4.67198786895611    2.54209813682001   -1.07773467801781
H         4.52243966258066    0.83817804223169   -1.18919791599932
H         5.45297236241445    2.49404401789450    1.11649774135510
H         5.94546189315428    0.89018447675452    0.59149957581753
H         4.92409474637482    1.12978460767377    2.88007206914062
H         2.66706851311498   -1.60929798839462    3.71539355886550
H         4.08121187771911   -0.85056126452231    4.29859293154860
H         4.17202007994148   -3.25374677271817    2.64625298547743
H         5.54070929588835   -2.62972553046563    3.52500017801707
H         5.03121557320747   -1.95997361948397    0.64896351518201
H         6.06046085320016   -1.02541507907583    1.80564646750262
H         1.65145716360818   -0.34103709610233    1.53152977876026
H         2.19473231898592   -1.84695087849498    1.25681362308533
H         2.93297379653491   -2.80117082606718   -0.28783363128949
H         3.03172289337164   -2.04176023988508   -1.94736890278495
H         1.45871205664723   -2.06014345998126   -1.09228649428531
