37
 energy: -49.582135176941 gnorm: 0.133354652968 xtb: 6.4.1 (79825abcba525fcdf90b791dcacef51065a7a4e7)
C         2.25114790122037    0.49938651920222   -2.38699660191672
C         2.15491030264060    0.35781221482843   -0.86141162198259
C         2.87783752259060    1.60653239354513   -0.28107011577439
C         4.40739216318745    1.42261477392245   -0.37336732249708
C         4.98258954145478    1.56977478972447    1.04575019128233
C         4.07874547312879    0.93640221462765    2.09380954019457
O         2.90541644938730    1.79870940401494    2.25656279025439
C         2.36463781298793    2.14104785023954    1.02906447905340
O         1.32498966167107    2.79801655198608    0.96542467375815
C         3.80347716799125   -0.61016022063637    1.92567895544057
C         3.89851819127044   -1.44650133989602    3.34979462575122
C         5.20455655334995   -2.09242150830361    2.86705697832590
C         5.05898814846885   -1.55618291649909    1.47567442608748
C         2.51434526408335   -0.97121323227255    1.10315160065539
N         2.68589220776548   -0.89589586973070   -0.34066535327245
C         1.99858472666027   -1.99856454106216   -1.00795891410361
H         2.37829020358883    1.55042823539029   -2.66476639647507
H         1.28330092646023    0.15494808668601   -2.77646787497954
H         3.11783305872538   -0.01439779575125   -2.81008884001279
H         1.10482448892501    0.46497941794073   -0.57453222912809
H         2.60057674556394    2.41910864171180   -0.96646749944810
H         4.78370603072520    2.14040855858264   -1.11759469563908
H         4.63788644432575    0.41405484686025   -0.72102051863388
H         5.03756521461353    2.60017027983691    1.43000020523843
H         5.99121333008218    1.14817623141394    1.02266862293614
H         4.51684558826470    1.09167920561339    3.08638853069106
H         3.06657298313075   -2.15060847460263    3.43592908631760
H         3.99626008460396   -0.70423909163719    4.15426267478035
H         5.46970713600281   -3.14851336018117    2.94682307347671
H         6.02461644555156   -1.63062022401651    3.42682993053514
H         4.72642512120418   -2.30600654576879    0.72376392914106
H         5.93837437045917   -1.11741159868541    1.00480612884379
H         1.69418369257835   -0.37752426905689    1.53176332401606
H         2.25580583828558   -2.00289287824135    1.36408148732161
H         2.45185264705841   -2.90057147808999   -0.57480738461008
H         2.29000274503891   -1.97924172436809   -2.06279770105715
H         0.91922481047184   -2.04909199562792   -0.85120483670355
