37
 energy: -49.585106483474 gnorm: 0.122467548831 xtb: 6.4.1 (79825abcba525fcdf90b791dcacef51065a7a4e7)
C         2.59283169442217    0.48773271109604   -2.36692152245851
C         2.16432276159180    0.36263200593862   -0.89809736928780
C         2.48716210613966    1.74153510449646   -0.25535083636980
C         3.97127457876277    2.13569352161856   -0.41004795517186
C         4.80981927715785    1.05992250523648    0.30126220527251
C         4.37985513854712    0.86172311126605    1.74776529854841
O         3.30556671857950    1.80852794087281    2.05797223075434
C         2.22055574998282    1.95421002970444    1.21067229086805
O         1.13304502475304    2.33768273363737    1.64287048938662
C         3.80659299118019   -0.60076015324910    1.91631555831881
C         3.82636045017282   -1.03126061885006    3.51346406137565
C         4.98192627461438   -1.98759509685226    3.18776988518494
C         4.92952124847620   -1.77066532411806    1.70625627171811
C         2.48588108836485   -0.96167672119265    1.14545179420307
N         2.76339925394959   -0.81161261145788   -0.27587607103953
C         2.53928874613980   -2.00894586383104   -1.08192695582109
H         2.59475149938861    1.51286253630675   -2.75047733911612
H         1.92179959604112   -0.12007772884751   -2.98928465017263
H         3.59415545648016    0.09890145122714   -2.56763400147883
H         1.09140458820908    0.15280491376326   -0.93393010921220
H         1.74256482217601    2.32961394744200   -0.80912103023865
H         4.04280516493035    3.15256231816408    0.00416897186679
H         4.33448940133856    2.14754044984242   -1.43918260688287
H         5.89330930956662    1.21932757577856    0.18713665098211
H         4.52792899128308    0.13078643658721   -0.20157385242743
H         5.15547386408278    1.04573431718242    2.49996951332934
H         2.96342339713061   -1.52052735602846    3.97311233616529
H         4.01956645007074   -0.18704288813325    4.18995754610204
H         4.82873619784017   -2.99923006499906    3.56872257888532
H         5.95579211162454   -1.68849161509717    3.58930051975991
H         4.52806445300510   -2.64430824281200    1.14609242321975
H         5.88744236755921   -1.43448126377501    1.31011895610496
H         1.70059026852535   -0.27453718562819    1.49185790783604
H         2.12768588323114   -1.96916037959658    1.38201638504046
H         1.53924466379859   -2.08145681435099   -1.53063906892109
H         2.73234223871493   -2.92631811969926   -0.51700112920997
H         3.20139156758166   -1.98789209937771   -1.94986663583302
