37
 energy: -49.573115563333 gnorm: 0.140220814589 xtb: 6.4.1 (79825abcba525fcdf90b791dcacef51065a7a4e7)
C         1.77009995688498    0.54159658536841   -2.34073376648918
C         1.88807162229019    0.59463192247651   -0.81103300358324
C         2.72040099081615    1.81198258168344   -0.31706204339301
C         4.23715150358025    1.71417848946751   -0.58498759198012
C         5.00023451005437    0.93198894906188    0.49773418573257
C         4.26327119445471    0.69846613103218    1.80879309927331
O         3.24617078351974    1.69695971746376    2.14832308470654
C         2.40966012779973    2.10942617860317    1.12533207898154
O         1.40760874177385    2.75562468363972    1.43330398270643
C         3.73011671306118   -0.78451411144290    1.92020146226831
C         3.48216772360555   -1.33566178416706    3.46012427366314
C         4.88919791802498   -1.94662862928996    3.40562424438517
C         4.91114210861511   -1.91535367795855    1.90788336980947
C         2.47693726181277   -1.04477152935849    1.00884042156848
N         2.64592100665048   -0.56407831556468   -0.35500963652042
C         3.08650794813122   -1.61616462225959   -1.26745032176713
H         1.18918116712849    1.43949289241386   -2.57381207239710
H         1.36456294714768   -0.44497015277398   -2.60394333345750
H         2.76252303772360    0.69239022924452   -2.77256965474515
H         0.86434665382689    0.52956107738636   -0.43127284711551
H         2.43930291172228    2.72782064129305   -0.85478667953038
H         4.68582215680017    2.71863280036213   -0.56306471379487
H         4.54836654471103    1.16232159960658   -1.47368475566774
H         5.98472490570281    1.39253133309366    0.67398579645439
H         5.36297840775510   -0.03542237289926    0.13977853348339
H         4.99585899643772    0.88538903627445    2.60228578823014
H         2.76719044890088   -2.16168642123634    3.41758449856038
H         3.27584917824752   -0.48457984971236    4.12402770571600
H         4.99892063248341   -2.99036620265053    3.70657318930322
H         5.69613661287600   -1.31263996163246    3.78774035758707
H         4.56212952924930   -2.91659485344644    1.57037875471342
H         5.87231998826752   -1.75393772618369    1.42040072715528
H         1.67765291962396   -0.43102791602539    1.44850270457046
H         2.23673707238427   -2.11250539676518    0.96962072993201
H         3.71577163067360   -2.32528220248841   -0.71259174498172
H         3.69976350301227   -1.14622500233281   -2.04272902894003
H         2.22573911836464   -2.11712201122848   -1.71495608499977
