37
 energy: -49.572886697728 gnorm: 0.142117408750 xtb: 6.4.1 (79825abcba525fcdf90b791dcacef51065a7a4e7)
C         1.66027489292398    0.35560851592839   -2.33743229685629
C         1.99591900466147    0.36962157380547   -0.83947998986090
C         2.60311378681488    1.70510008656556   -0.32321095441166
C         4.10885325122549    1.98318519492274   -0.51634088942293
C         5.03413316564162    1.08038183862578    0.31744910989931
C         4.46177923563528    0.82380554816626    1.70420896142454
O         3.36507707269939    1.74105462951731    2.02461775386040
C         2.32115653483151    1.93756838314351    1.13692326912151
O         1.26361190227663    2.34008524670140    1.62283034530534
C         3.91198410923764   -0.63527365557278    1.95858884682740
C         3.59605888954964   -1.03103183729706    3.53344485151964
C         4.55183128292310   -2.20921060049500    3.30025256803543
C         5.06121778827285   -1.79845699094899    1.95247875115432
C         2.64762592593991   -0.89940784896942    1.06393632626499
N         2.94505860188179   -0.61366218979978   -0.33234147080401
C         3.14620350385848   -1.77524934666623   -1.19478362093552
H         1.06948750713343    1.25841258973747   -2.52161963634498
H         1.00766043251682   -0.46882980961999   -2.65594331907417
H         2.52262628499671    0.33816607735725   -3.00837965188782
H         1.07738250910982    0.20147576303631   -0.26984634067039
H         2.00141730273832    2.38051618768345   -0.94666719329386
H         4.24123289564367    3.03800791420054   -0.23254680266576
H         4.40560314487235    2.06839834075045   -1.56317501520734
H         6.02826196998006    1.54610727312030    0.40226062564729
H         5.25933109420129    0.24450235807999   -0.35052650499709
H         5.20715447528073    1.09894876480801    2.45917098768446
H         2.51588733386243   -1.19976505249981    3.54223977394656
H         3.90393641096051   -0.30683062636979    4.30052998479329
H         3.99026518964685   -3.14541395551691    3.28743596714916
H         5.36374660377127   -2.31456787760640    4.02743739210154
H         5.00648265678467   -2.52379676144233    1.11040433682112
H         6.01405534774735   -1.27871145669945    2.05006220529355
H         1.79278826603974   -0.26825976929361    1.34632662286971
H         2.36934380655601   -1.93536042169061    1.28450663986750
H         2.83182834315804   -2.70663977670298   -0.70450952653230
H         4.18047927279446   -1.80196875973764   -1.55191441227456
H         2.48357647890679   -1.69205089363380   -2.05858113036399
