37
 energy: -49.574210429856 gnorm: 0.153031237663 xtb: 6.4.1 (79825abcba525fcdf90b791dcacef51065a7a4e7)
C         2.34361919441196    0.59495460221424   -2.42045810932957
C         2.07072909734828    0.36340207873139   -0.92759880028924
C         2.55381309558163    1.67984132024875   -0.25503676766270
C         4.05738773365732    1.87015205185098   -0.54645912569919
C         4.98317982655253    1.15594682724480    0.45315204863332
C         4.41743084586879    0.95651868686397    1.85196577381167
O         3.20890868378671    1.72764142871731    2.15463262374671
C         2.20359366911281    1.78778381719723    1.20483587364700
O         1.11763283632220    2.15817734240423    1.65207616210444
C         3.91546842809458   -0.54069995325103    1.89956876816661
C         3.77698833635497   -1.01305239879968    3.47890760930231
C         4.81675853330053   -2.10715964421602    3.19999547499344
C         5.17305962746771   -1.58421152410737    1.84195932289901
C         2.67032066953361   -0.93847423462332    1.02770048410195
N         2.83135416227852   -0.76685679759117   -0.40907511969252
C         2.39000039428353   -1.98268550982772   -1.08768978838764
H         2.18033492141932    1.61775082459595   -2.77434515923275
H         1.74336930134760   -0.08607942958846   -3.03928456604224
H         3.35769904584644    0.26353577116883   -2.65694942524621
H         0.98307958226805    0.32025588458585   -0.81979460282428
H         2.02030010150037    2.53642882966553   -0.68925443757581
H         4.23958501385261    2.95498806133919   -0.52097558673866
H         4.25129390144147    1.35677904439722   -1.48987421931872
H         5.96501990845434    1.65073316487994    0.51283281087673
H         5.20964338720186    0.18235176637758    0.00995122588725
H         5.20665485638080    1.08913419750098    2.60082777239552
H         2.76171218783082   -1.34261182488284    3.71538967236332
H         3.91719864610281   -0.12017152752525    4.10403190912522
H         4.20992377926908   -3.01031541173912    3.11022518975734
H         5.60491093634103   -2.25733163231010    3.94522602595184
H         5.22171814542712   -2.20936576328020    0.92271095221460
H         6.13872723390352   -1.07922696589107    1.83612549806615
H         1.83125513264296   -0.32930446848809    1.39337907197907
H         2.38677355116160   -1.95770359176027    1.31065362872560
H         2.64514136914484   -2.84994593360453   -0.46362968780413
H         2.87610412317169   -1.92556180185283   -2.06668046671261
H         1.31147834278103   -1.96223259093877   -1.25655233434496
