37
 energy: -49.575762894800 gnorm: 0.142302242613 xtb: 6.4.1 (79825abcba525fcdf90b791dcacef51065a7a4e7)
C         1.93389587314734    0.54672915942341   -2.40359377890121
C         1.95051830507520    0.46233461074230   -0.87084600889999
C         2.61320196190205    1.73286895666905   -0.26643311104581
C         4.12747675176878    1.87843879614731   -0.52655447164772
C         4.97994271896115    0.98059230928134    0.38644939218631
C         4.32877795101093    0.82522773460453    1.75333256898563
O         3.17591664875686    1.62509537973351    2.17509777507064
C         2.23993373423925    1.87082400678826    1.18517723483227
O         1.13492035421431    2.25281117566877    1.57190375588617
C         3.80848583891441   -0.65861675764595    1.90629532776102
C         3.76206770798025   -1.00930777817705    3.52229838835228
C         5.01683100853856   -1.87748340464369    3.35549059488645
C         5.04588854807305   -1.72675169599058    1.86514734387525
C         2.55781976688370   -0.96717444676037    1.00662975744387
N         2.74604380443849   -0.66705795317684   -0.40553533495658
C         2.86154952446173   -1.86138207808590   -1.23848116758760
H         1.74584552063666    1.53733632641939   -2.82943930206435
H         1.19573446204690   -0.18254676037451   -2.76460324119501
H         2.91918164813050    0.17515436867678   -2.69560173142570
H         0.96628676164563    0.47201803349402   -0.39370944044030
H         2.09560658339609    2.56042085633713   -0.77059195091625
H         4.38445456709428    2.93801347269709   -0.37830356692459
H         4.37350626911618    1.68439817210753   -1.57202144264702
H         6.02310930613775    1.28008101869848    0.57217832909260
H         5.01439018324124   -0.00638162551776   -0.08290748567211
H         5.06876330846346    1.09361368783917    2.51599000232223
H         2.85563547748694   -1.43879638356943    3.95731445821905
H         3.74692001175505   -0.13797367075484    4.19179296214650
H         4.84305408616527   -2.90825850315647    3.67061237792902
H         5.91907794647197   -1.53416661901419    3.87239334817000
H         4.97277219017054   -2.57042487383789    1.14329375341192
H         5.95735256673453   -1.20923237257766    1.56687824112396
H         1.67130313540644   -0.51683083120643    1.47579762005138
H         2.45682036343271   -2.05198584046321    1.11741465933772
H         2.17553345869600   -1.82079097788629   -2.09546592883716
H         2.63000216365069   -2.80984580654422   -0.74372358477469
H         3.84638943973567   -1.89133695233125   -1.70894448835877
