37
 energy: -49.577000719675 gnorm: 0.141569720686 xtb: 6.4.1 (79825abcba525fcdf90b791dcacef51065a7a4e7)
C         2.20611549975001    0.49819385370064   -2.47395893045201
C         2.12584866019620    0.39532602668745   -0.94435442728676
C         2.79012152980169    1.66079325170957   -0.33112007521513
C         4.32467867554019    1.50941063330191   -0.39514763717630
C         5.06453291974383    1.56528729263043    0.95240425459666
C         4.22523606910563    0.92404993348784    2.04826864871186
O         2.94443432548301    1.62824968967777    2.15031235077315
C         2.29114961108493    2.09272462940578    1.02165324841531
O         1.35106519173371    2.82292919264301    1.33719841271088
C         3.91147388352317   -0.61238790321328    1.85641455022961
C         3.73446847423495   -1.37089868550044    3.31584430312499
C         5.03318593968292   -2.14436648974960    3.04926372971299
C         5.14118478956801   -1.66680746578479    1.63329726749503
C         2.63661460513195   -0.90229880468123    0.98494619049280
N         2.77830073612971   -0.81546822575458   -0.46146106772777
C         2.10226257015088   -1.98595556271587   -1.01506947384155
H         1.44977144829139    1.21257585910523   -2.81397648735195
H         2.01484197652514   -0.46576334263581   -2.96513551020769
H         3.17562312916659    0.87686194537347   -2.80681019101282
H         1.11493055610963    0.54767336125008   -0.55538181069826
H         2.52274089851883    2.52199558404118   -0.95862418020065
H         4.85074600144029    2.20266388589659   -1.06847335326434
H         4.50076787473374    0.48636835140333   -0.73213513059500
H         5.09829317559309    2.64328646579913    1.17413222554371
H         6.07210331391506    1.14346554964953    1.00208691087737
H         4.72625741519646    1.12933795998871    3.00120628777555
H         2.90294966558306   -2.07845987397101    3.37287472029931
H         3.69046117020159   -0.78808499039401    4.24647157289757
H         4.94550594526958   -3.21096212042232    3.26532723924880
H         5.81583245813465   -1.68262540314342    3.66029892231575
H         4.89839261690362   -2.35750834228158    0.79533109876466
H         6.10239620772999   -1.21489377951149    1.38956793769843
H         1.80620965046801   -0.32178287075402    1.41187529945066
H         2.38555476462640   -1.94489192804881    1.20688869479097
H         2.63767658353370   -2.91385499124378   -0.77212286712935
H         1.90081404639387   -2.07525336192053   -2.08718285034540
H         1.11584675690124   -2.12069051153575   -0.56676931407839
