37
 energy: -49.578036354339 gnorm: 0.150171305007 xtb: 6.4.1 (79825abcba525fcdf90b791dcacef51065a7a4e7)
C         2.31145703989578    0.54476373479411   -2.45559144805750
C         2.08822201733282    0.48141937142753   -0.93807106944372
C         2.64423696616824    1.77335072329683   -0.27438223249218
C         4.15272783093851    2.09100639390908   -0.34808478761634
C         4.90219631311344    0.93659148073511    0.33895657316955
C         4.40458623717126    0.75984640289831    1.76642592355016
O         3.22445386028716    1.56744727330895    2.08553678494932
C         2.23692012408180    1.88845484172354    1.17004755968212
O         1.10187374762130    2.21234628539621    1.52117464886825
C         3.85742139638874   -0.71731815023333    1.88680664027530
C         3.64701805944511   -1.11455108904598    3.47883087798331
C         4.97385341246468   -1.86799796066356    3.31206617118175
C         5.17194952629894   -1.68860163780745    1.83786730640166
C         2.56548729650618   -0.88928449970033    1.00925009403051
N         2.76933912564339   -0.69850508704392   -0.41965022184669
C         2.45601932998455   -1.95960517008939   -1.08673923584008
H         1.71388573693791    1.39691095876457   -2.79435915607548
H         1.92937076873749   -0.35047246731350   -2.96511641403010
H         3.34712440736199    0.65430979483499   -2.78652541174443
H         1.02293494602620    0.47277754943561   -0.68997112174697
H         2.17538237452429    2.65558096016759   -0.73129409132471
H         4.32151185776569    3.08939897501877    0.08254108423961
H         4.42098249400457    2.11216347464710   -1.40580653921146
H         5.97725588636645    1.15029844575091    0.44365384347960
H         4.75038687326255    0.05963916146715   -0.29626668207011
H         5.14936852172247    0.99633921026090    2.53494802126946
H         2.75376494641607   -1.72222766847574    3.64660122599798
H         3.60128897477537   -0.18230812711942    4.05892352948738
H         5.02541749619649   -2.92733142573400    3.57120169620933
H         5.75129371889878   -1.46390649940645    3.96887746422896
H         5.00182059646967   -2.62192159537701    1.25634082577923
H         6.10114165447097   -1.14005000072913    1.68538630559896
H         1.68912637155605   -0.39333787853920    1.45068874141897
H         2.21926576087876   -1.90446442211649    1.23022591621165
H         2.96423077928566   -2.71615003358446   -0.47351043514444
H         2.86920567171037   -2.00715494806157   -2.09916146113990
H         1.37583082807636   -2.11851089642530   -1.09592969488967
