37
 energy: -49.573512064964 gnorm: 0.139841430337 xtb: 6.4.1 (79825abcba525fcdf90b791dcacef51065a7a4e7)
C         1.06181219636961    0.67088311927499   -1.46294784084652
C         2.20136839300627    0.42174503200523   -0.46492160748372
C         3.01776267818064    1.72018051155068   -0.20745744285359
C         4.50696414460440    1.45167763750821   -0.51088300536043
C         5.37155585503144    1.20222672965226    0.73677801605905
C         4.48798357645958    0.64992924607280    1.84618813904281
O         3.40467772269077    1.54656830926764    2.25758833745633
C         2.70405418703654    2.11875028872813    1.20967435208406
O         1.86839692290573    2.96438921065393    1.53076304188865
C         3.96088140173687   -0.82043958201867    1.60938715755191
C         2.74671810977470   -1.16810273279538    2.67781709497324
C         3.78625504824286   -1.71121490536105    3.66795689424108
C         4.83076019690395   -1.79103224866176    2.59682404516953
C         3.75665280672710   -1.43254738464016    0.17677197424330
N         3.01540077685065   -0.72257637412566   -0.85579521212314
C         2.52198228332256   -1.58351390397236   -1.92765116755986
H         0.39754165686571    1.50015140281267   -1.20013864679563
H         0.39195313675236   -0.19577185206909   -1.54810338909413
H         1.45157488738446    0.98888472649090   -2.43304296274167
H         1.65004917305195    0.19451559816805    0.45207277876428
H         2.59730304781293    2.51396981319601   -0.83994104229357
H         4.82863500978412    2.29993181577946   -1.13354433790573
H         4.48863470260451    0.58514385521782   -1.17418288064998
H         5.91021194922117    2.12334875456901    1.00838265468660
H         6.18681818292688    0.49561521298609    0.55888044159659
H         5.10157682306232    0.47451591496120    2.73724885760864
H         2.02003150189918   -1.84191501637501    2.21605697188397
H         2.19641165949137   -0.25283878518025    2.93691220972276
H         3.46032067358057   -2.60300480092800    4.20691424505628
H         4.05510178240307   -1.00661806940471    4.46191479103953
H         5.01632194555340   -2.81921527004913    2.21392778268467
H         5.83519552629190   -1.44261717951140    2.83614384379835
H         3.33352116269777   -2.43968438561916    0.30116753684156
H         4.72006156971139   -1.46739615085669   -0.34276535599682
H         1.66216109606538   -2.21852591321920   -1.67436115701821
H         3.38545494987706   -2.20523351925724   -2.18428780977867
H         2.19649631410586   -0.95396533578420   -2.75823540259336
