37
 energy: -49.577508076853 gnorm: 0.151322774781 xtb: 6.4.1 (79825abcba525fcdf90b791dcacef51065a7a4e7)
C         1.92604914760478    0.57992403386104   -2.32522578811234
C         2.04505865960365    0.45079754168964   -0.80014298959696
C         2.65566562890830    1.78401164843249   -0.28204902179322
C         4.16442477949916    2.01112288472278   -0.51431646807215
C         4.96700758247841    0.93211006489547    0.23267402394973
C         4.38627984890884    0.83360314713517    1.63608950393105
O         3.28468186046517    1.69011516306678    2.08289187221858
C         2.30140622781312    2.01165320240501    1.16301602087242
O         1.41828344303805    2.80624026692507    1.48744124162069
C         3.89036617768285   -0.62743671233490    1.97568942791570
C         3.63942913177191   -1.15081812173266    3.52478826950909
C         4.52798698463376   -2.35144394275172    3.17130943546257
C         4.96076820357438   -1.85444341842334    1.82580644563008
C         2.57442002641626   -0.92751735517141    1.17132075360220
N         2.72132268107766   -0.72340124619777   -0.26271713290307
C         2.97450099524536   -1.89795604678219   -1.09330258213079
H         1.30876869563274    1.44049534457746   -2.60161639477374
H         1.47801403611484   -0.37814782008360   -2.62257462286294
H         2.89555265884870    0.57592625090655   -2.82938000852402
H         1.00322524249876    0.47400095299240   -0.46771325526906
H         2.21909653246789    2.56629256888520   -0.91794779173180
H         4.44161445311273    3.03538797005433   -0.22317844893000
H         4.51504241922060    1.95375238241211   -1.54628515570975
H         6.01238245248290    1.26825463776705    0.31381260418453
H         4.97403301372089   -0.00954091615290   -0.32306343456019
H         5.19263993559509    1.10813852476747    2.32577744133051
H         2.58279590088803   -1.30819577325123    3.75733358572607
H         4.04176835694711   -0.38718697997752    4.20498397356136
H         3.97832111728887   -3.29332924611162    3.11918484021852
H         5.31555679643759   -2.54010270229982    3.90836172399300
H         4.72650805866846   -2.56665937104979    1.00356945975135
H         6.00558433315545   -1.54496315969341    1.83757868449062
H         1.84918719008065   -0.20492791708596    1.57224648191348
H         2.30256462670733   -1.95892191748090    1.41949246407282
H         3.35828726450958   -2.65299729697480   -0.39379606206549
H         3.76194427110449   -1.65528587829804   -1.81373784389105
H         2.05661323611828   -2.32677420499360   -1.50041403113941
