37
 energy: -49.570523006426 gnorm: 0.147769912985 xtb: 6.4.1 (79825abcba525fcdf90b791dcacef51065a7a4e7)
C         1.71832875921907    0.62874876362266   -2.42581983325335
C         2.10220395162702    0.63311473215303   -0.93943657413366
C         2.68105147876357    1.88670678839803   -0.22377984837931
C         4.21419625545638    1.98861600713879   -0.36856742663132
C         5.11408459076135    0.92807514628868    0.28859058770832
C         4.55894388128492    0.67116037575747    1.68226806457719
O         3.52998767687772    1.63960032698503    2.06974258817384
C         2.42051901823226    1.78936285549345    1.25547007714794
O         1.30662391826285    1.84671761499036    1.77746078428382
C         3.89869659253640   -0.75508288832350    1.84289059536828
C         3.36103275475389   -0.92168381712771    3.39845044629634
C         4.52385512518083   -1.90729717986983    3.57843694277155
C         4.94863892685299   -1.97214273015633    2.14315258927249
C         2.68685407812882   -0.94545083171038    0.86107119413449
N         2.82896759380599   -0.56469253366091   -0.53697575336916
C         2.90445023554528   -1.70464589431851   -1.44711811706612
H         0.86575091101570    1.28576088825852   -2.62445511750045
H         1.50070061521194   -0.42677281832489   -2.63928093933821
H         2.55469607958622    0.99021470564187   -3.02910798128666
H         1.11391875606009    0.55091364492388   -0.47791717871070
H         2.21823178131348    2.73512990094817   -0.74617756817936
H         4.52539086291744    3.00066921444399   -0.06920035159930
H         4.48859234353056    1.94112787361172   -1.42385655367440
H         6.11618788972981    1.36453914232964    0.42153199302661
H         5.13462643552736   -0.06314147077818   -0.17256849287430
H         5.26604361837857    0.84343719739547    2.50177179217778
H         2.38049938762878   -1.40414477799145    3.36521531588971
H         3.29375189946627   -0.00550938534373    4.00158663390691
H         4.24816189810833   -2.85491724228585    4.04534905942987
H         5.36196365386988   -1.46994791639853    4.13107075283840
H         4.63623630947958   -2.88511257119018    1.58899222431058
H         5.97603392088601   -1.72406251338586    1.87768491230574
H         1.83593849529723   -0.39805045896530    1.29134447042494
H         2.40128208803380   -1.99416053168867    0.99503580212325
H         3.64741536995392   -2.38424239649398   -1.00798264531606
H         3.18143969303964   -1.28239671557324   -2.41818204882272
H         2.00233823558355   -2.31889972771965   -1.41504245013016
