37
 energy: -49.551836592296 gnorm: 0.150765792267 xtb: 6.4.1 (79825abcba525fcdf90b791dcacef51065a7a4e7)
C         0.97754123215426    0.39795966458723   -1.43539768583033
C         2.16782008395175    0.47395282481999   -0.46886999919832
C         2.89922249854656    1.84635823415640   -0.45225619023282
C         4.42982448507159    1.88079120371298   -0.64707355221173
C         5.04677871299279    0.98842015545408    0.44354277360670
C         4.24645479211666    0.52401738147787    1.65198595977507
O         3.14650353322656    1.43365225700009    1.98279543621497
C         2.69007804797558    2.26851913446387    0.97727947111540
O         2.03394137245903    3.24213218254866    1.34888207932899
C         3.79761365499045   -0.98313694826392    1.80339043513931
C         3.04603187785533   -1.18224332703467    3.26355691590077
C         4.33018210145825   -1.85414241812089    3.76902156498786
C         4.92565453756995   -2.00414520306502    2.40242025682329
C         3.06686345700208   -1.53043555270208    0.52462543582443
N         3.03594878152947   -0.68169368454883   -0.65790994802011
C         3.07222485284693   -1.34244071011021   -1.96008038443073
H         0.13525032364127    0.96191830497036   -1.02247325387664
H         0.60390527254385   -0.62758689390344   -1.56071286054692
H         1.10324715160235    0.79264022652063   -2.44660972941006
H         1.66669972804509    0.38067560547685    0.49893295747488
H         2.45001876714082    2.68014234076174   -1.00898173662609
H         4.69237983459405    2.88508936941801   -0.28215667911011
H         4.92010996056795    1.85757012141016   -1.62188860902022
H         5.95798486517599    1.48235405099012    0.81518494331910
H         5.47507029850961    0.19242152101103   -0.17172345140103
H         4.91555381808108    0.68846750987578    2.50434641860789
H         2.15158687987690   -1.81089883165456    3.25465623692759
H         2.79909808999606   -0.24870024150656    3.78814872279994
H         4.17584908403666   -2.83148763676498    4.23051382240320
H         4.83863253037810   -1.17021325550834    4.45664316920418
H         4.75389002925095   -3.05217654935509    2.07026022935373
H         5.97196689760083   -1.76388565225118    2.21516871258448
H         2.08410906715812   -1.94123727214948    0.79716045055364
H         3.67434755789363   -2.39595781971325    0.23980234330404
H         2.16519610417195   -1.89616359729969   -2.23825005656361
H         4.00926669971192   -1.88461150813220   -1.79887832634617
H         3.41584184973871   -0.63565019971803   -2.71804952679717
