37
 energy: -49.555847573106 gnorm: 0.157543903376 xtb: 6.4.1 (79825abcba525fcdf90b791dcacef51065a7a4e7)
C         0.75892242825054    0.44876213770525   -0.87831845415957
C         2.13788270651252    0.28303714863049   -0.22431676394192
C         2.92618145495063    1.61750276197964   -0.35280269240481
C         4.41038282160017    1.62868803996357   -0.77577197768801
C         5.20499453243666    0.93122574388216    0.34160940432305
C         4.47890868087242    0.68471510926342    1.65635466972506
O         3.48221272409158    1.70043796495314    2.00516340134255
C         2.84070952446203    2.34558356160606    0.96177946443691
O         2.12392408302808    3.32553441974818    1.16779184203112
C         3.84165575407032   -0.75706548647942    1.76158434525107
C         2.69225731212632   -1.17064374508720    2.87712945601845
C         3.67024206828945   -2.18003779491971    3.49410122806828
C         4.82346399039237   -1.70140189537969    2.66604672085234
C         3.74022385444815   -1.50114716820769    0.38143016504114
N         2.75561007274514   -0.99310580666388   -0.56310043693669
C         3.06087049747728   -1.16614796358549   -1.98099425896570
H         0.11738732887228    1.09547278111086   -0.27151703641496
H         0.41243095447033   -0.59352778776946   -0.85324182158397
H         0.72898617641750    0.82944855601401   -1.90218669842478
H         1.82011450761370    0.22957764280079    0.82097278530833
H         2.46912378175825    2.14828546370332   -1.19914260435960
H         4.74818947531650    2.67587489492893   -0.77489135335990
H         4.52422988012679    1.06946843516024   -1.70609221808960
H         6.09200748567139    1.50711583292896    0.64811206286725
H         5.68507384570328   -0.00632655657911    0.04814803589466
H         5.10235525078346    0.83131195965663    2.54578112964044
H         1.72912211436235   -1.42077659174254    2.42422442449506
H         2.58260139864721   -0.31115066402418    3.55309009156964
H         3.37226632413065   -3.22347337961783    3.37389267249118
H         3.64166682384304   -2.01507516224537    4.57626350524689
H         5.44068484553432   -2.53758154079748    2.26849792064628
H         5.59298771193180   -1.12383879667158    3.17772188178369
H         3.62687012394766   -2.58838983332134    0.49930250856514
H         4.68075475521178   -1.44421803455527   -0.17664743639438
H         2.73012111434392   -2.19355984194029   -2.18524467870295
H         4.10159133887783   -1.06779461136628   -2.30535428486026
H         2.36946884504168   -0.44710182991747   -2.42493018123581
