37
 energy: -49.574073289293 gnorm: 0.143856819774 xtb: 6.4.1 (79825abcba525fcdf90b791dcacef51065a7a4e7)
C         1.70255285270445    0.44765337507660   -2.34601015672950
C         2.06091946039995    0.47705442773203   -0.85355466870236
C         2.64151092416028    1.81906442122974   -0.32379548865295
C         4.16819061699696    1.96747658015061   -0.49439679067955
C         4.98713282078860    0.91282499327118    0.26943978057398
C         4.46846789453161    0.73823480743378    1.68966099496821
O         3.43200920639049    1.71771196085475    2.02602570284935
C         2.42310595755862    2.06669397332550    1.14471131801893
O         1.44024003670158    2.60239844511312    1.65805474481479
C         3.85072652207700   -0.69788631500048    1.91736184625986
C         3.60609275130986   -0.98927344254443    3.52728500961938
C         4.42500349029115   -2.27509332697381    3.34829580949303
C         5.03730753393486   -1.81374562519022    2.06107809061495
C         2.56624594856687   -0.95336882743123    1.04925474280955
N         2.78564161815380   -0.68986117420385   -0.36571440084102
C         3.01244670942093   -1.79636465164763   -1.29186769400958
H         1.02577207505534    1.28435057450143   -2.54579874131626
H         1.11604164296625   -0.42791367689321   -2.65655869172473
H         2.58874781243162    0.56282182713934   -2.97491335568336
H         1.04140411209192    0.59666074116089   -0.47573515691642
H         2.26881765150906    2.73205858885066   -0.80801095844251
H         4.47982812365478    2.94609444503935   -0.09955053109701
H         4.49880179881231    1.95445890073636   -1.53444980175123
H         6.08091488596639    1.03403920488930    0.23292719412600
H         4.83965647565214   -0.06578088340876   -0.19551325487634
H         5.26024043364832    0.85102598286387    2.43908084197434
H         2.55896261888263   -1.18474901773898    3.77350974708332
H         4.06389031589798   -0.19134570243890    4.12845743116297
H         3.84493424385162   -3.17653950062667    3.14114386162756
H         5.16972002925099   -2.45571041045556    4.13052285961518
H         5.16007068865545   -2.56540995976164    1.24982414005305
H         5.98300213416697   -1.31393075078057    2.26941478424213
H         1.74675434896617   -0.49698116384688    1.62282549412668
H         2.28463981476896   -2.01160815546461    1.06009151687487
H         3.97353593339518   -2.28963622555681   -1.09267128076372
H         3.13169622655378   -1.41359599586581   -2.31032260048024
H         2.19088518164696   -2.51487068027816   -1.26139763391711
