37
 energy: -49.565414974386 gnorm: 0.152025767995 xtb: 6.4.1 (79825abcba525fcdf90b791dcacef51065a7a4e7)
C         0.94878715085160    0.58292981169860   -1.38380091601100
C         2.10900844362805    0.40757149294567   -0.39392695029643
C         2.90484428388997    1.74233311872679   -0.33245482938646
C         4.41522975337306    1.61796148534229   -0.62425832094670
C         5.29770148903768    1.13024954761716    0.53754341364052
C         4.55620278561455    0.74738039060621    1.81038046159907
O         3.37440381293496    1.55627433044097    2.11990439233288
C         2.80057679663034    2.26198448988454    1.07631205083661
O         2.04353755071748    3.18243282316831    1.38646141130491
C         4.01376508086040   -0.73472400887635    1.73950211922874
C         2.79804215419825   -1.17774658809898    2.77020741765332
C         3.72670174509695   -2.26864628191422    3.32112839285514
C         4.95060390820160   -1.64361305162000    2.72440035652932
C         3.80234847387381   -1.33614016733096    0.30340563053056
N         3.05027591212092   -0.65096406958370   -0.73804957490660
C         2.48387746397686   -1.63249248030229   -1.65964884156806
H         0.46207872021858    1.48152541702191   -0.99181781377335
H         0.28895836835698   -0.29551091032551   -1.38842022688066
H         1.20915297480813    0.79644555520283   -2.42338986419817
H         1.70681921077853    0.19910056517734    0.60168767557120
H         2.34484140103741    2.42880256791640   -0.98213144920195
H         4.76043059364040    2.57729098407131   -1.03806711109942
H         4.43047220188946    0.96881234393035   -1.50150203571907
H         5.91637079556475    1.99891378553908    0.81150687664061
H         5.86569139986196    0.27446021052199    0.16256060074434
H         5.26138800298748    0.87509256442393    2.63963258700908
H         1.83455962856488   -1.56274141391630    2.42553479693421
H         2.73856593441476   -0.33654996574031    3.47485369798161
H         3.56846380438650   -3.27292297863899    2.92315033938823
H         3.82605920803733   -2.45257991033583    4.39602416599195
H         5.53679705787398   -2.34440146342503    2.08920256889916
H         5.60594836676579   -1.06435580219072    3.37443268554584
H         3.37993007252872   -2.31498034139639    0.57224422256426
H         4.80613484248421   -1.58055830103685   -0.05986094425333
H         1.67107643206961   -2.16914736602371   -1.15166796261030
H         3.20862868116861   -2.43577516046754   -1.82534524857227
H         2.20302106949057   -1.10879061556167   -2.57561758074266
