37
 energy: -49.554429666522 gnorm: 0.139713383494 xtb: 6.4.1 (79825abcba525fcdf90b791dcacef51065a7a4e7)
C         0.93169642324973    0.27361428917299   -1.23143656190456
C         2.17206303975744    0.31974571996820   -0.32806674076407
C         2.78975815489668    1.74575316537827   -0.26742317614505
C         4.30549457084711    1.89190439677916   -0.51855030538851
C         5.23380518042547    1.04498169529080    0.36878500816634
C         4.52066875052703    0.59231639992517    1.63490263964280
O         3.52763671470667    1.56937019213281    2.08879311884846
C         2.78220015449364    2.25857428820581    1.14767074370682
O         2.18146621426899    3.26855248557347    1.51589481911419
C         3.87800952438408   -0.85075806468844    1.65542334990842
C         2.79122044792841   -1.06426328744358    2.88420717574108
C         3.91929749671368   -1.63795842121082    3.75271207668819
C         4.72206089948327   -1.94762596356852    2.52618677204207
C         3.64154806054182   -1.46684442680642    0.22948676886761
N         3.17129389632768   -0.60628842428980   -0.84662327584569
C         2.81131769659789   -1.53326853576382   -1.91651835014212
H         0.20219712803196    1.05103127815043   -0.98351820087394
H         0.44847612397610   -0.70520196476147   -1.10705668005875
H         1.30889067303554    0.28564379176989   -2.25696292249649
H         1.93364458571664    0.00437563935625    0.69181715621666
H         2.27386191236517    2.53387193731472   -0.83279308661927
H         4.43483720853932    2.94745287782924   -0.23605724730778
H         4.45461618449595    1.61596383356192   -1.56392250772898
H         6.04017038323962    1.72905954363457    0.67570180185028
H         5.43526826516651    0.22346735200287   -0.32412685965846
H         5.18472315480362    0.52054993763450    2.50388884519350
H         2.04275249171276   -1.84261452886869    2.71308183694121
H         2.22052212628820   -0.16039950703355    3.13917627965151
H         3.68562617513218   -2.42123689503165    4.47650072280308
H         4.29490214569279   -0.83278856217469    4.39281132972247
H         4.47273631509950   -2.96734190698657    2.15710725784922
H         5.81061898225175   -1.90038862836919    2.50702202540395
H         2.98927576431299   -2.34131089517041    0.36619391030320
H         4.56245315065322   -1.93200910144997   -0.13772646293783
H         1.76405803340701   -1.79573590081600   -2.11911805757502
H         3.22597234768651   -2.54133833850899   -1.81732415551683
H         3.17789244947991   -1.14938741843581   -2.87066767353217
