37
 energy: -49.580218773661 gnorm: 0.139741885478 xtb: 6.4.1 (79825abcba525fcdf90b791dcacef51065a7a4e7)
C         1.84594054419892    0.54091314844739   -2.29931932241346
C         2.06988894787276    0.46813007724371   -0.78232748632057
C         2.79746430585117    1.76962962975537   -0.34022439086115
C         4.30881601178563    1.58766368391172   -0.59436267578575
C         5.03637372467954    1.57014215447176    0.76090679958451
C         4.35182712323549    0.90359984125327    1.94566017976805
O         3.07644478802517    1.58113152805813    2.19287268567891
C         2.38231346354816    2.03086747008676    1.08277875392742
O         1.35680999490361    2.68669189239253    1.26922753433943
C         3.92668675091655   -0.61618550795529    1.87214794244017
C         3.65393820919250   -1.22006239105859    3.38791364281304
C         4.67117236857580   -2.32252594807938    3.06265455578758
C         5.11045631015209   -1.73811128648715    1.75491738196790
C         2.65195310482115   -0.95500756511731    1.01831813761597
N         2.84454246671848   -0.70711345166065   -0.40335914974352
C         2.59620303705630   -1.96724196633265   -1.09902726090704
H         1.22789584854831    1.38921067214810   -2.60983820625680
H         1.35146298123435   -0.36428370904334   -2.67768959028231
H         2.77502640820068    0.56623726475003   -2.87402157008023
H         1.09020848656698    0.50461788161746   -0.29718869446465
H         2.38185890075887    2.65938153458953   -0.83270479797182
H         4.81705163823295    2.23706358925936   -1.32284789895339
H         4.47154547760050    0.58078291962317   -0.98281309512658
H         4.98007315415309    2.62424981705698    1.07407216320310
H         6.06284136187704    1.21176780721742    0.64457945534046
H         4.99490971766112    1.00611131792493    2.82724503929628
H         2.68231596793552   -1.58132284099346    3.73541894036527
H         4.05342502388363   -0.45934082808792    4.07303301751098
H         4.19275163407735   -3.28962250432342    2.89581537091735
H         5.39755769773946   -2.43165573473152    3.87478721286573
H         5.13915828255917   -2.39271785183699    0.85554567519853
H         6.11527984727103   -1.32143339821529    1.82023622510389
H         1.80519902599516   -0.43092543376108    1.48434930510652
H         2.37695797705530   -2.00992510955232    1.12232092252871
H         3.11278906838946   -2.79424704314118   -0.59317150876592
H         2.95154321406762   -1.92134561428564   -2.13324657090362
H         1.51691770435124   -2.10563408062973   -1.18921311526799
