37
 energy: -49.585568478069 gnorm: 0.137213510498 xtb: 6.4.1 (79825abcba525fcdf90b791dcacef51065a7a4e7)
C         2.28882768319567    0.44457527670971   -2.39393605878881
C         2.05649162459193    0.35216120729893   -0.87927633018484
C         2.48335335111602    1.72952409544996   -0.29671074580109
C         3.99741449564731    1.94851968489566   -0.50052846023372
C         4.95855748809275    1.09234223829963    0.34182950551355
C         4.29658091564290    0.91563232394282    1.70090417090128
O         3.20522405440467    1.82612559915980    2.05686134252844
C         2.16900130800050    1.98545903538944    1.15284555971968
O         1.13724732440917    2.51117281902656    1.57193375319235
C         3.92131807686822   -0.59064689132339    1.99449685862513
C         3.77945514041568   -1.16871576442597    3.53797215538044
C         4.89946258011141   -2.17691266636122    3.24624104078871
C         5.10806814599707   -1.70484475958057    1.83971233315509
C         2.67200213781281   -0.92396482868696    1.10181524565321
N         2.82728032586443   -0.75964960331562   -0.33644677848059
C         2.61071007889995   -1.96245228041417   -1.13639272367817
H         1.75963464216206    1.33060540225754   -2.75851150713413
H         1.75421599915797   -0.40387454862285   -2.84268622767840
H         3.36216882898831    0.38971846714822   -2.59155702392147
H         0.98955869904790    0.22522894419533   -0.67431988778249
H         1.95044166904348    2.46829632628599   -0.91083124789501
H         4.16409171765025    2.99037094700708   -0.18831204239414
H         4.24641835740734    1.78574147562558   -1.55061598907365
H         5.90143837532089    1.65397521956070    0.43087605543011
H         5.03892169204983    0.06345383560438   -0.01946027355460
H         5.00209415011237    1.24901501780217    2.47055524130212
H         2.81890637726462   -1.66340681653246    3.70514173383219
H         3.93600313337053   -0.40567260606602    4.31317111312989
H         4.55369945820613   -3.20070834235109    3.40208628028700
H         5.81220112236656   -2.04259364878250    3.83613184886627
H         5.03258389408579   -2.44672898060905    1.01381102645098
H         6.01197193109881   -1.13946984743732    1.61417625499455
H         1.90554569876501   -0.20371999188597    1.42217678338346
H         2.35033931133465   -1.92539146167299    1.40672122629103
H         1.53837502856927   -2.17933277257898   -1.23512953868772
H         3.10478773391068   -2.77916499782292   -0.60080864273131
H         3.17274499893269   -1.84959576017030   -2.06565202554359
