37
 energy: -49.573327285759 gnorm: 0.133871782475 xtb: 6.4.1 (79825abcba525fcdf90b791dcacef51065a7a4e7)
C         0.92081808040671    0.45647750754521   -1.25469121256828
C         2.17096450619775    0.36587762516863   -0.36832782398419
C         2.87545086523154    1.75127001577864   -0.31256912085727
C         4.39170068551441    1.73478667471006   -0.59996549889742
C         5.18891919361913    0.96223096687872    0.46493024079986
C         4.40442759260002    0.53841993831862    1.69841328971352
O         3.44051247644818    1.58579603942983    2.04573769774949
C         2.80454594087677    2.33688858093594    1.07218963593001
O         2.32845562261393    3.44859836685321    1.30449450715781
C         3.83307925057522   -0.93291270203018    1.76651045850726
C         2.73076649409237   -1.15200806257686    2.98039204123075
C         3.72021991633172   -2.05248935103358    3.73278826218936
C         4.76136685425644   -1.93843477918473    2.66148438250125
C         3.53071352093612   -1.50690349830689    0.33546849506076
N         3.15509455854969   -0.63295601741285   -0.76672687073265
C         3.00133315035385   -1.37572346634650   -2.01500744488566
H         0.27748718869573    1.17762260552289   -0.74079917502671
H         0.36141391235927   -0.48900664443517   -1.26811371818272
H         1.02622336624748    0.94737759800038   -2.22527420656438
H         1.81779885880428    0.18860140689168    0.65162902782063
H         2.32426995610977    2.38364586535738   -1.02195171067867
H         4.69538292088896    2.78195372087291   -0.74806246070723
H         4.56611490148588    1.27699259515799   -1.57525404819896
H         6.02188810908278    1.63256794973002    0.72798227526362
H         5.60837885214368    0.12848030344099   -0.10473059612703
H         5.00623120872558    0.58507942085809    2.61324169284487
H         1.90208996252168   -1.67493114375182    2.49545339465020
H         2.38425087668176   -0.25125978009290    3.50599171021358
H         3.32040521571376   -3.02489735468216    4.02701324363415
H         4.00580501521365   -1.52903642646175    4.65123401293065
H         4.93997234284005   -2.80980916938690    1.99289647234093
H         5.68622072629685   -1.46401157524515    2.98878439604332
H         2.86487106396019   -2.34574260646305    0.58414974993207
H         4.46549680033555   -2.00626655693520    0.05959410097769
H         3.98670059655929   -1.49983481224208   -2.48440698872954
H         2.48504481104213   -0.70108480409773   -2.70514635949121
H         2.52966742812276   -2.36000161406578   -1.98550049056221
