37
 energy: -49.580086269930 gnorm: 0.144229591055 xtb: 6.4.1 (79825abcba525fcdf90b791dcacef51065a7a4e7)
C         1.84390270455196    0.38809510561433   -2.36279345604849
C         1.99806641249054    0.44129346378466   -0.83632105971848
C         2.62868642555062    1.78315749262100   -0.36680912235501
C         4.16088669334263    1.83067143196783   -0.54565722612432
C         5.01863960298103    1.16254000310742    0.54258123583448
C         4.32596802245984    0.86907197759799    1.86568589423924
O         3.20906372228339    1.79095213381425    2.08800342544617
C         2.31692170480581    2.09155740683480    1.07306088691530
O         1.26312187793467    2.60735579507267    1.44720542146604
C         3.87623669377278   -0.64353981129869    1.94080764694248
C         3.72050990609116   -1.14493289665958    3.50955201483878
C         4.68674431036497   -2.28563861081461    3.16146257401526
C         4.99772467512490   -1.82138347158561    1.77133819859570
C         2.59311568072069   -0.93563392035823    1.08228965082985
N         2.84856324637076   -0.62229358442609   -0.31637859495417
C         2.95434504106044   -1.85950628068076   -1.08557651086453
H         1.45304893686623   -0.56135398442873   -2.74198953693322
H         2.73484716774595    0.82170182825452   -2.83740555533253
H         1.09663627420686    1.16073535600282   -2.55962957669343
H         0.99550356322071    0.28153090711356   -0.42912519267092
H         2.25661846113501    2.58903743994642   -1.01414690586360
H         4.54527052266991    2.84921832960618   -0.70542493261320
H         4.41764643319477    1.26753892910139   -1.44462313817909
H         5.80194108970448    1.91656076730007    0.71658335471326
H         5.52850117543869    0.29714868857489    0.11044803518007
H         4.96308509839875    1.02990503413687    2.74288044173849
H         2.70961752492802   -1.53909502493563    3.64390845141393
H         4.14170643861005   -0.37596142346393    4.17208648788455
H         4.09698188794420   -3.20440891608882    3.16769764330619
H         5.52363986996631   -2.42169191303174    3.85442702748908
H         4.78102404134722   -2.49464094503865    0.91228741217724
H         5.99669383076309   -1.38593905863737    1.76885705200176
H         1.76107538064021   -0.40022871418795    1.56175791609520
H         2.36209580127303   -1.99900674747275    1.20540743884484
H         2.01963990167119   -2.43017954538886   -0.99986246770824
H         3.75310541277354   -2.48671624792081   -0.67744390258027
H         3.23290671179863   -1.52746551289801   -2.08772172178267
