37
 energy: -49.568855636206 gnorm: 0.156204631382 xtb: 6.4.1 (79825abcba525fcdf90b791dcacef51065a7a4e7)
C         2.74768405077806    0.34756176946846   -2.46375551835646
C         2.24967406026235    0.44316284227642   -1.01476933196230
C         2.91000325377554    1.65226555670835   -0.29313362129933
C         4.43117841202959    1.39241032456845   -0.27355641753078
C         5.03254212750021    1.68044271244747    1.11273419055361
C         4.13467477807544    0.94086996111376    2.09425836578068
O         2.88847667210953    1.69795208146065    2.23771663116636
C         2.27415180625206    1.98318699217050    1.03039096154507
O         1.14234068741114    2.46192036843446    1.11004101336028
C         3.85441396662515   -0.58322963116921    1.78689824489621
C         4.02160643111896   -1.49491374933288    3.15711117822533
C         5.35643476168988   -2.07764499924114    2.67271225109832
C         5.17493291772523   -1.43365984943040    1.33217967105755
C         2.44676620724974   -0.88370023815132    1.15680555775478
N         2.43417237317619   -0.81227042851751   -0.29730847614989
C         1.47706265412186   -1.83796782245205   -0.70404709788059
H         2.53779142569601    1.31646192839003   -2.92763856442354
H         2.30315659246132   -0.53280450691109   -2.94790841661786
H         3.80700234505132    0.08194481585613   -2.50139740137948
H         1.18433382247174    0.69110479375151   -1.00846244617881
H         2.74384166625756    2.55643826273838   -0.89461953922804
H         5.04806111911718    1.82984560410597   -1.07281890556047
H         4.38635983890629    0.30200792164392   -0.28760622354418
H         4.94145648999680    2.76699058160693    1.26603912131123
H         6.07055100106988    1.42347368193033    1.34099840030739
H         4.55508261195673    1.02480074040100    3.10295484685857
H         3.12725055637326   -2.11413923289310    3.26668401769953
H         4.04737384820190   -0.90947585997177    4.08677460361407
H         5.34752905622290   -3.16469196162302    2.77393996408648
H         6.09575350295697   -1.53437332220793    3.27051497272401
H         4.85901546209153   -2.23286478557578    0.62530580020230
H         6.00044504232802   -0.89185516125272    0.87116474445051
H         1.61248997678804   -0.31130317340398    1.58713608300487
H         2.15681447339476   -1.89377592917058    1.46496950756604
H         1.69706224985051   -2.85811525039614   -0.36113607735350
H         1.40690434304485   -1.76793278906006   -1.79407260397769
H         0.48899176765961   -1.53587841754708   -0.35105898194065
