37
 energy: -49.580011191964 gnorm: 0.128333910406 xtb: 6.4.1 (79825abcba525fcdf90b791dcacef51065a7a4e7)
C         2.53314233496108    0.40079354512176   -2.42512769968128
C         2.16381163788481    0.37453307813054   -0.93528887502009
C         2.84618556127378    1.63893773865393   -0.34000002992919
C         4.36681166828967    1.38854447701972   -0.25704626456619
C         4.97298542184819    1.60383004037249    1.14031128528609
C         4.06663602759787    0.95157612977629    2.17453512915054
O         2.75417248919155    1.59893590614041    2.10292430275483
C         2.22799040165313    2.13436913199161    0.93981083799642
O         1.35258676107907    2.99392604161669    1.04637798578367
C         3.85767982974410   -0.59470636751689    1.92706045908798
C         4.03080126147771   -1.47257027445671    3.31845855791762
C         5.23240421053423   -2.16168966446514    2.65721009904178
C         5.05460626040083   -1.52428567689772    1.31304067334621
C         2.51037536323323   -0.84413353483942    1.15808165359359
N         2.61283299503527   -0.85521176223729   -0.29418835573405
C         1.87161748683763   -1.99849208856302   -0.82055338261605
H         2.01800809353779    1.21611822461717   -2.94271082698903
H         2.42438048528412   -0.60986210833371   -2.84202035202261
H         3.57556094331290    0.72740658098262   -2.45362158767412
H         1.08965879518666    0.47121064921946   -0.75276783762707
H         2.62513712646919    2.49268839715598   -0.99511122127422
H         4.89450787005580    1.99553243079358   -1.00792359953784
H         4.54214526086248    0.36775194185017   -0.60117446527579
H         4.90830207554588    2.68647716974264    1.33024950753685
H         5.97215059314563    1.20816487000886    1.34209852385507
H         4.35851862932695    1.09208994954612    3.22158628561436
H         3.18520825333549   -2.13397632969087    3.52542070629690
H         4.09324218972383   -0.90567666365896    4.25782447814218
H         5.20215484572131   -3.25151820744055    2.71514269716567
H         6.17440922825870   -1.86475712917263    3.13003356287764
H         4.68745609891162   -2.15037843865980    0.46958844847517
H         5.90190428778350   -0.88372046133380    1.06948447177053
H         1.66730232536247   -0.21446418883935    1.47680406184798
H         2.26011900596978   -1.86445801252610    1.46727359968097
H         2.08164704223174   -2.87325993934236   -0.19019050062331
H         2.17262682948221   -2.22056193895018   -1.84917433171153
H         0.78270263909072   -1.92362090823255   -0.84886337828032
