37
 energy: -49.576040044411 gnorm: 0.131871304959 xtb: 6.4.1 (79825abcba525fcdf90b791dcacef51065a7a4e7)
C         2.12626284570113    0.63202982846369   -2.41723330141585
C         2.06144953486956    0.48371242365972   -0.89063065853121
C         2.60726897581053    1.79473251503132   -0.25657267650374
C         4.11989754420796    2.03945412292604   -0.44082250024384
C         4.96136775301428    0.96755487363650    0.27287385607442
C         4.47240970810756    0.73066547566866    1.69460757060514
O         3.46998549179930    1.74642316420604    2.02648904512802
C         2.35295672302957    1.89953436874751    1.22325001706783
O         1.33050464155992    2.34216572384061    1.74784069946121
C         3.83789011326225   -0.70477158922172    1.87571867901651
C         3.58882094737590   -0.98124720035787    3.48759041802469
C         4.64560955300222   -2.09224283666257    3.41779614744692
C         4.80306172834862   -2.02360741191212    1.92944626196647
C         2.52618413526987   -0.87655678271797    1.02796348968803
N         2.73705511847713   -0.71249128416726   -0.40323333814152
C         2.84278051371229   -1.90107276060534   -1.24563860198481
H         1.46984838312338    1.44576114980494   -2.74122603637075
H         1.90661300929407   -0.27536282060323   -2.99641029187756
H         3.17869408415348    0.82404385648319   -2.64004179556537
H         1.03565494128479    0.44284139043645   -0.51308621944281
H         2.08195874824753    2.60628140879512   -0.77845466314524
H         4.39482907389239    2.97064593170869    0.07687325527970
H         4.28006769410703    2.18555137146417   -1.51048814547242
H         5.99637736878637    1.32325415081550    0.15196738962818
H         4.77089236634500    0.05373435051018   -0.29655676586642
H         5.26180389313316    0.75970199083587    2.45439003869834
H         2.54133852980035   -1.17558108630953    3.73321972451769
H         3.90135694261899   -0.15232091465403    4.13788114337776
H         4.50677870960717   -3.04651392178765    3.92974355877221
H         5.56171008309114   -1.62629744087630    3.79563092317290
H         4.39757740034752   -2.88437651154903    1.35250428115172
H         5.77539425548776   -1.87852581064857    1.45925679180587
H         1.74547773248125   -0.20239501655642    1.40854595462700
H         2.29786969693003   -1.91797600874100    1.27818027489482
H         3.30758953192580   -2.78164029856488   -0.78169686321469
H         3.48661534256072   -1.66276233041584   -2.09808657004441
H         1.87826896248018   -2.34424850232362   -1.50148114857468
