37
 energy: -49.577981427444 gnorm: 0.151635713913 xtb: 6.4.1 (79825abcba525fcdf90b791dcacef51065a7a4e7)
C         2.35635374835596    0.47355346321937   -2.48194403810716
C         2.13816183530508    0.43944280534233   -0.96275239541720
C         2.87492430909240    1.64741992745479   -0.31723364294431
C         4.39806901726081    1.40229719425751   -0.35997591599533
C         5.04437607627470    1.63941562785689    1.01569287882321
C         4.19699877147580    0.97342496861830    2.09037025224193
O         2.95082838321789    1.72736445040300    2.24973756580162
C         2.30640476537650    1.94567942684842    1.04414807303396
O         1.18920737960197    2.45666943644866    1.12950261614742
C         3.85918704252867   -0.56042807680691    1.91985929941023
C         3.92743413705293   -1.28820055440386    3.40387219331512
C         4.91253803918497   -2.28826345573426    2.78304274883508
C         5.08054342691346   -1.55735130650099    1.48603503294186
C         2.54469930247506   -0.82203611763300    1.09982588413204
N         2.69773490521893   -0.75726663034915   -0.34658120625173
C         2.06111076509645   -1.92948087663686   -0.94170634881550
H         2.33340819027918    1.51103741362635   -2.82995333191993
H         1.53055096957005   -0.09270479258680   -2.93411085642890
H         3.39798153729536    0.14478144841698   -2.51427120206581
H         1.08273663411190    0.53545294505617   -0.69196740621801
H         2.55591269135100    2.50776335969284   -0.92135616597873
H         4.88683827129901    2.04124772853981   -1.11068308644738
H         4.57354388845128    0.38571374000326   -0.71627653465313
H         4.90920483829374    2.68608971682825    1.32967911443651
H         6.10788347797883    1.39247179830558    1.07544897101682
H         4.57612316794270    1.09321608451000    3.11172742926310
H         3.03041116975262   -1.74488375870829    3.83061459081946
H         4.39507647495232   -0.54106705560990    4.06020880402268
H         4.67292147887357   -3.34417504944959    2.64292825397134
H         5.81458862715404   -2.42662531832543    3.38824118094289
H         4.72833625429336   -2.17585450354093    0.63069478332731
H         5.97502053338872   -1.01309896266704    1.18394655548734
H         1.65232876653991   -0.24971465070050    1.39130925505156
H         2.23077907563331   -1.81467648100111    1.43954507651790
H         2.47883663421678   -2.85313764510260   -0.51856117278217
H         2.38479128096271   -2.02072062965221   -1.98328636503752
H         0.97229919618604   -1.90442945538990   -0.86421771769347
