37
 energy: -49.587415941644 gnorm: 0.138168109244 xtb: 6.4.1 (79825abcba525fcdf90b791dcacef51065a7a4e7)
C         1.81868560916088    0.59587842065079   -2.33133498769241
C         1.99319354729837    0.49792732685482   -0.80927486161223
C         2.72601141976479    1.76527978528183   -0.28437698249122
C         4.25309852957908    1.91819100760623   -0.44718040539965
C         5.04478810390480    0.86577319842077    0.34783340977890
C         4.45357138374907    0.68411158203638    1.73851135958997
O         3.46689829419914    1.71071506030717    2.08394559520732
C         2.47283263977344    2.03111228720618    1.17533769165850
O         1.42536553366792    2.53100295043334    1.58697848454476
C         3.76453057456106   -0.73347708629328    1.84603374019381
C         3.47498111423377   -1.08737453989983    3.43585210350408
C         4.77938722571426   -1.89558819793690    3.47190876480886
C         4.93827072897870   -1.86373818802278    1.98246960771219
C         2.50782228430979   -1.04751431856592    0.95674386446930
N         2.76234668169963   -0.68049512959645   -0.42897713656060
C         2.80457450698468   -1.82623060263421   -1.33399508084334
H         1.66505497443818    1.64065298072409   -2.61917809434849
H         1.07379480699965   -0.05667285981722   -2.80711642726827
H         2.80355566986630    0.38299802778904   -2.75422673032839
H         0.98999843555224    0.54454631659565   -0.37581086864690
H         2.24009524519838    2.57322846660167   -0.84831638086552
H         4.59759760909381    2.90976217792402   -0.11729948679742
H         4.38147587095812    1.78427121207447   -1.52271200715942
H         6.06640303369585    1.26425170887453    0.44734757333365
H         5.02885625487752   -0.10341652867082   -0.15814830662626
H         5.19740018331898    0.70084042820741    2.54330609212903
H         2.69600167227286   -1.84674854194119    3.54476027148357
H         3.23667457028155   -0.20208631450065    4.04178140110077
H         4.66511293759341   -2.87954508783101    3.93100318579262
H         5.58863652928853   -1.43519020220384    4.04832325082387
H         4.55754156464655   -2.82360725227812    1.56786169212802
H         5.90653932890321   -1.60849415107707    1.55251175234927
H         1.66942893263444   -0.44389580187935    1.33301620197438
H         2.25231167313450   -2.10899082578587    1.04201914839661
H         3.55359868728624   -2.47062970836122   -0.85399389924966
H         3.09719709675315   -1.46382778346187   -2.32445906812407
H         1.79620466444649   -2.22649080748802   -1.45697767955161
