37
 energy: -49.565961366839 gnorm: 0.124152867002 xtb: 6.4.1 (79825abcba525fcdf90b791dcacef51065a7a4e7)
C         0.82841450065361    0.54209228827494   -1.12416595536505
C         2.17209819855945    0.35691678356703   -0.40518150625152
C         2.93652213886804    1.71100072855837   -0.37628740110033
C         4.44180885052416    1.52452923543155   -0.66128247190042
C         5.22627395795025    1.14085221220234    0.60513335507997
C         4.39429615297214    0.61242116287451    1.76491646701905
O         3.31149495624371    1.56671859920748    2.01714904992502
C         2.69043500509530    2.27010747028902    0.99934852485442
O         1.80827890617209    3.10428533573279    1.20544098290474
C         3.88068443455327   -0.88118272693213    1.72961307690565
C         2.94034694477132   -0.99319148338863    3.08601425856044
C         3.94774444884754   -1.98627787605443    3.68176117508350
C         4.83927703909885   -1.97443849073894    2.47771928895743
C         3.38944518846288   -1.55256224795371    0.39668204989033
N         3.18583603248632   -0.64187500559486   -0.72086012216783
C         3.08873287768034   -1.25064257310808   -2.04506685846979
H         0.16133170516342    1.26662706267275   -0.64660987053980
H         0.31317227310247   -0.38884210848760   -1.39791778265324
H         1.04870281409077    1.10066840359529   -2.03717762630105
H         1.85702553630049    0.16005926289624    0.62362418878150
H         2.46009468890883    2.31305880549066   -1.16207759483542
H         4.87878992376434    2.44556422310819   -1.07535556513509
H         4.69056863230249    0.74731910457516   -1.38602137026764
H         5.72878191369352    2.03441901764563    1.00689122444674
H         6.00769117486936    0.41847117179326    0.35383111625814
H         4.90493194620330    0.59755250879645    2.73459977444629
H         1.92226843264278   -1.34379714263704    2.89651321239084
H         2.92334062478189   -0.05478997703916    3.65766884347432
H         3.58509995743239   -3.00943367707544    3.79854577170641
H         4.31107303394837   -1.57714331087483    4.63028932783499
H         4.89286610849735   -2.96780156584642    1.97916031625413
H         5.86524369919226   -1.61768414950737    2.56533271765355
H         2.54830255203536   -2.23134235928555    0.59811743630113
H         4.16539792194913   -2.25516369304333    0.07490807267157
H         2.09887038663165   -1.57931498917947   -2.38979175329687
H         3.68791525641625   -2.15488700403130   -2.19102979606316
H         3.38677245177961   -0.46968794518277   -2.74750900872379
