37
 energy: -49.579761054835 gnorm: 0.136317710503 xtb: 6.4.1 (79825abcba525fcdf90b791dcacef51065a7a4e7)
C         2.25509902463743    0.49561480689989   -2.40079541826080
C         2.09415620741740    0.43941422683749   -0.87513053093052
C         2.62980133882585    1.78111268491155   -0.29923854221602
C         4.15047922170916    2.02169438079978   -0.40666783474884
C         4.93217014256506    0.97454259101605    0.40501870451883
C         4.23111872141432    0.76027734631687    1.73886300744550
O         3.22593300304946    1.77588902995910    2.06274242286965
C         2.23562924518957    2.03556927556461    1.13094100933550
O         1.17909353385764    2.55775440088421    1.48812603169472
C         3.73949428828985   -0.72934459997373    1.92655369986326
C         3.73419837007141   -1.20584129853893    3.51070254342547
C         5.07260277449652   -1.89754176469245    3.21708915660135
C         4.98341413000389   -1.77171731820454    1.72682039106103
C         2.41043131464821   -1.01033755268288    1.13699295715439
N         2.65673888962808   -0.76491228487308   -0.27679890805026
C         2.68013866840211   -1.99089940150865   -1.07049813576334
H         1.35461055709181    0.21369133757545   -2.95545709560481
H         3.01837570622801   -0.21548000410994   -2.74547836899805
H         2.57368556842234    1.46708847402632   -2.78662704439699
H         1.00846790652966    0.40181664492523   -0.74733335949005
H         2.12124444966190    2.65720995483584   -0.72438171248085
H         4.44853991242449    2.95913782074079    0.08635756553257
H         4.53329138474266    2.04470660345081   -1.42848423404788
H         5.90424871813534    1.45281258236335    0.60175792428054
H         5.06221443938565    0.04533638620993   -0.15646536104287
H         4.96484351779101    0.96414847251216    2.52711436002901
H         2.91410568059753   -1.91381558066990    3.65746503939051
H         3.75224830656544   -0.35947120168949    4.21142176090745
H         5.05950921730362   -2.94181881251482    3.53538378365265
H         6.02845637152386   -1.52264817993972    3.59775057151415
H         4.64031261541800   -2.63377675011443    1.11254201167089
H         5.90324911599899   -1.34278578022149    1.32998454047426
H         1.63860065032218   -0.28688727168277    1.43655381787565
H         2.04345088507405   -1.98676681568069    1.47046135353729
H         1.72182362482445   -2.21615762449015   -1.55791947684136
H         2.91664995682196   -2.83579107395418   -0.41612579524199
H         3.42296075809313   -1.88625347817659   -1.86385004971717
