37
 energy: -49.582418801105 gnorm: 0.136059573176 xtb: 6.4.1 (79825abcba525fcdf90b791dcacef51065a7a4e7)
C         2.61274975769694    0.37425494068216   -2.44630535808883
C         2.20742230636992    0.40322156093332   -0.96590505011716
C         2.77814198030570    1.68363280641794   -0.29244518038778
C         4.31719184657671    1.70666243028065   -0.40503729462813
C         5.04188868119251    1.66597025720359    0.95126696046580
C         4.18833718836865    1.02942509306143    2.03882542342338
O         2.92685787538212    1.74441893691224    2.24910394904138
C         2.22815204666204    1.97869722767710    1.07721952868421
O         1.05014756035918    2.30628137331067    1.22391729684109
C         3.93928805400038   -0.52289251609925    1.88332463487515
C         3.89994313554759   -1.32804733486213    3.32789461428246
C         4.75929540953209   -2.41444095665354    2.66664785865603
C         5.18861350017507   -1.52141494294548    1.54286945007272
C         2.56870638549471   -0.79166524074249    1.16357556334681
N         2.66454633732517   -0.80422249998386   -0.28913413794199
C         2.04853279100994   -2.01955065798036   -0.81549451326148
H         2.26883049215381    1.30998999422928   -2.89811213198699
H         2.08123985674496   -0.39371824025093   -3.02489665243051
H         3.65510877935666    0.31077128462140   -2.76814695506618
H         1.13059591333006    0.57908262058428   -0.88855770131579
H         2.35648646786162    2.46746497394236   -0.93644596882929
H         4.63701044249916    2.56374516306881   -1.01646159491429
H         4.64895738523892    0.80709909542158   -0.92647848401690
H         5.26004404792741    2.69640643763976    1.27219494630312
H         6.02237423591156    1.20501389067378    0.80372935188871
H         4.70562863925331    1.19629749474297    2.99057059003473
H         2.89908712709975   -1.53994060987711    3.71352049976176
H         4.46075866482868   -0.91471650674336    4.17778821585597
H         4.26809312353744   -3.32922759276885    2.32918202801909
H         5.52777484880185   -2.73167704802940    3.37932241564885
H         5.04320025915628   -2.02527722367894    0.56145168570834
H         6.18734819461927   -1.08553531761138    1.55263252165043
H         1.77498353531877   -0.12757635393369    1.53482963522395
H         2.25378973882838   -1.79821639480627    1.45848608231317
H         2.42333971012738   -2.85673857341829   -0.21107352124988
H         2.24559274099775   -2.08118876443233   -1.89036697914172
H         0.97504816906139   -1.94322454418599   -0.63124526152314
