37
 energy: -49.581146457179 gnorm: 0.151519312282 xtb: 6.4.1 (79825abcba525fcdf90b791dcacef51065a7a4e7)
C         2.01877426947099    0.58578104164867   -2.40220023503123
C         2.10731083620340    0.50876432874159   -0.87153234867371
C         2.66364629311296    1.83436729296162   -0.27824511394308
C         4.19603355570859    2.01283020852868   -0.32093155561957
C         5.04658418095103    0.99184752059210    0.45402689204605
C         4.35079817419403    0.66954441295916    1.76876103671098
O         3.31370796897835    1.64887205047123    2.10361116522163
C         2.35292420498369    2.02765910111299    1.18176291777633
O         1.32247572869983    2.59265495285884    1.54984144788837
C         3.67704082243278   -0.75234247709197    1.91083374236514
C         3.46484548814660   -1.22377442588373    3.48224386634894
C         4.82232980596504   -1.92989779940357    3.36136866317476
C         4.91124109243392   -1.82416988280193    1.86952289622296
C         2.54977342300272   -1.12180025711259    0.88052273326123
N         2.87044698778959   -0.66445044554407   -0.46398761324557
C         2.91141936572539   -1.86604650978214   -1.29346854693241
H         1.47472625034879    1.50960706679741   -2.62257977444598
H         1.31677999892605   -0.18669226569661   -2.74504495340160
H         2.99359722119104    0.52281961232014   -2.89197629992811
H         1.08445477100819    0.50578164733151   -0.48394831490306
H         2.09938050389140    2.58099592897351   -0.85363459742018
H         4.36377885802592    3.00191139981216    0.13105776349787
H         4.65097454839628    2.01772833177172   -1.31299414564026
H         5.99499996296143    1.46515656720958    0.75213982179790
H         5.11395887884790    0.00014361538350   -0.00158705544589
H         5.01343256061271    0.77867474563467    2.63493766663612
H         2.60862940926274   -1.90317066450516    3.50741556031342
H         3.26956954147446   -0.38152753390898    4.16059705088981
H         4.84554332530224   -2.95537459074596    3.73534185327152
H         5.59063897471964   -1.29677744837150    3.81739942442098
H         4.55793680949076   -2.73057582667449    1.32933089693896
H         5.88713932786543   -1.57305687855231    1.45464670399946
H         1.63833937070781   -0.65907474743662    1.28550751689476
H         2.33003869637311   -2.17771007741461    1.07042015184409
H         3.66645708825530   -2.54687153523554   -0.87743502966930
H         3.17186250180661   -1.61397207406015   -2.32623693673226
H         1.91395983367974   -2.30773731638658   -1.33958151119582
