37
 energy: -49.582140016432 gnorm: 0.138349481977 xtb: 6.4.1 (79825abcba525fcdf90b791dcacef51065a7a4e7)
C         2.03521152412389    0.46833807513879   -2.31000833099848
C         2.06634032056603    0.42672268033098   -0.77572881085090
C         2.70711835808614    1.78104009022482   -0.35865570106225
C         4.21878097420147    2.06085817724324   -0.49452269536928
C         5.03083719315424    1.07120979344563    0.35845056433290
C         4.47198582452057    0.91860377280415    1.76590211301204
O         3.36002547058753    1.84282847652620    2.00279063538667
C         2.34422285078198    2.02902151716750    1.08090862577046
O         1.21914796378098    2.34831596711308    1.46663355857363
C         3.91058975996830   -0.54369896231236    1.97181735725926
C         3.69344345116166   -1.14143946841897    3.49895797771924
C         4.44022901571260   -2.39855870956603    3.03210978333302
C         5.05957294133060   -1.70169240960835    1.85930210051681
C         2.61891300591438   -0.89187779593632    1.14773346068732
N         2.85151263407913   -0.69516900854799   -0.27596297029088
C         2.63729823969191   -1.95356277554886   -0.98596845101160
H         1.66933237694852    1.37474649178836   -2.80251837058794
H         1.47289117562967   -0.40173883914808   -2.67581628539187
H         3.08854373412226    0.39817920037797   -2.59230873551210
H         1.06927083448592    0.58486546026701   -0.35464911216856
H         2.10860640039514    2.51967320622250   -0.90922615525966
H         4.35674659882167    3.06636006503512   -0.06949814225783
H         4.55081631307889    1.87267573286519   -1.51703107341948
H         6.05858010126870    1.46113300443748    0.29450010374351
H         5.02092572086278    0.08746817332878   -0.11878547469303
H         5.17664342090884    1.20963942797544    2.55331027301557
H         2.66123567441625   -1.30255284355822    3.82130625676673
H         4.14323551058506   -0.53710877288025    4.29904989337023
H         3.79943888851833   -3.20670206365835    2.67393413531923
H         5.17014600965356   -2.79142074303358    3.74764106525382
H         5.06908597508255   -2.09603084842597    0.81881676174227
H         6.03482462397386   -1.26297416374333    2.06898714813016
H         1.68782025796252   -0.37549719708757    1.42206348965962
H         2.37837352437174   -1.94427781130391    1.33181196727678
H         3.04446637216524   -2.82719771302473   -0.45902948713558
H         3.20663537738253   -1.84297632893196   -1.91419717261540
H         1.62701391585193   -2.26407012396862   -1.25992732013099
