37
 energy: -49.576455630036 gnorm: 0.149851595187 xtb: 6.4.1 (79825abcba525fcdf90b791dcacef51065a7a4e7)
C         1.64246304035968    0.59335544869236   -2.25936959968073
C         1.93634555386828    0.42262929448030   -0.76230576117999
C         2.58801689204806    1.75242917937959   -0.28724907622586
C         4.07930583018370    1.78840251941401   -0.68303322706334
C         4.97124248314330    0.95929827027427    0.25688047098679
C         4.44380007075236    0.74683007484200    1.66868254799391
O         3.37113997594486    1.67917690005105    2.02490304336368
C         2.37164971148280    2.09541737568998    1.16226039806618
O         1.47171540648766    2.79942220902926    1.62163128729816
C         3.88379085480129   -0.71625243980887    1.87282760725377
C         3.53537098018314   -1.05442102688387    3.45423531862660
C         4.40980501591991   -2.31554130687644    3.42381391265237
C         4.99113801541561   -1.89614844731255    2.10819657878073
C         2.63900201693933   -1.09064613628274    0.99016020030324
N         2.84110089442348   -0.65611067894967   -0.38462831001992
C         3.33735240701961   -1.66438486911409   -1.31772425649034
H         0.98368699415495    1.45741734657989   -2.39135850478850
H         1.15216340253920   -0.32508245680528   -2.61027065304609
H         2.58182064246056    0.86365190525340   -2.74790992634265
H         0.96082157102397    0.30735818155056   -0.28112976628526
H         2.06245112238060    2.52372420698708   -0.86673838875373
H         4.50899898191494    2.78667964981707   -0.51121645769665
H         4.17024722004179    1.47834713969095   -1.72552006556961
H         5.93756186715819    1.42572737584464    0.50397561060141
H         5.12775823469366   -0.06458853159338   -0.09348889706624
H         5.11255502707241    0.89886305808097    2.52361441310792
H         2.48200540062470   -1.23045169606194    3.68822890327207
H         3.99116901371029   -0.26372845049627    4.06638642414900
H         3.90031668743079   -3.28017864915777    3.46733291021412
H         5.07957541136734   -2.38289500011708    4.28751264961909
H         4.94261895668367   -2.63702411029626    1.27937078416782
H         5.94587210768151   -1.37517056287137    2.17618352928938
H         1.81304918842316   -0.45835799062531    1.34632482529796
H         2.43412343044164   -2.16115197996558    1.09661177500617
H         3.97273848026940   -2.40820864199355   -0.81802505173448
H         3.98116218355876   -1.15569606468174   -2.04210493564448
H         2.45257632595003   -2.05024606217490   -1.82804290124284
