37
 energy: -49.577311231967 gnorm: 0.139093057191 xtb: 6.4.1 (79825abcba525fcdf90b791dcacef51065a7a4e7)
C         1.66001879858658    0.62263996348414   -2.32605855493125
C         1.99899984752511    0.41790364615323   -0.84285615625661
C         2.64493907435688    1.76213576595925   -0.40180672341592
C         4.17797670781563    1.83034646623425   -0.56619873905305
C         5.06459862974998    1.04060537672012    0.41186727503825
C         4.37205842884649    0.71845559955767    1.72835154721417
O         3.27297102857483    1.63929531767896    2.02972236458799
C         2.36138276110453    2.00890861636086    1.05566791501131
O         1.35068584196250    2.50404413142355    1.55552661566999
C         3.85305540709671   -0.76507325801819    1.88858221227250
C         3.51714002591239   -1.14007966332620    3.46437907377352
C         4.79566945472412   -1.98029762854144    3.58839909587319
C         5.01200756978591   -1.89749303139943    2.10818674458160
C         2.62587151480963   -1.03960993898937    0.94655202722956
N         2.87131175614697   -0.67924208228577   -0.44254931043206
C         2.96060050308357   -1.81125852650417   -1.36130756520756
H         0.82259608690531    1.32723910466447   -2.34258620838359
H         1.37308175453469   -0.31666569445063   -2.81842577387886
H         2.53042339467414    1.06678742041240   -2.81519391330559
H         1.01916407716397    0.40942958498635   -0.35673390188667
H         2.19407653179894    2.60619930909618   -0.94143895410203
H         4.35101066230166    2.89321527517472   -0.34018199405515
H         4.48291345591573    1.82752616995262   -1.61414391036833
H         5.90573765412412    1.72298499429994    0.60992900052575
H         5.58847353529949    0.23882243338399   -0.11567344140725
H         5.04068322558329    0.85475522106672    2.58603387720229
H         2.59519865733464   -1.71059985725186    3.60526784684663
H         3.52873003006467   -0.26589847752513    4.13022326298432
H         4.71895711163639   -2.99905210328662    3.97343415150977
H         5.53535984924475   -1.38273924322179    4.13143362863946
H         4.95299923621533   -2.87618569014725    1.58199123254095
H         5.96903070462081   -1.50476430981571    1.76550872824065
H         1.73638831813549   -0.59127511834846    1.41201428912895
H         2.48082867229577   -2.12133771692091    1.03664925884988
H         3.81820548806773   -2.40591296206615   -1.01839598009835
H         3.01269183598051   -1.41029636680711   -2.37841057478334
H         2.06201005693933   -2.43029465976615   -1.32293878258545
