37
 energy: -49.578291267045 gnorm: 0.138643501881 xtb: 6.4.1 (79825abcba525fcdf90b791dcacef51065a7a4e7)
C         1.54778986295298    0.45521434609447   -2.15736380259943
C         1.96917216584005    0.45977931387178   -0.68117595244831
C         2.68504213321431    1.79799940401516   -0.34144185370287
C         4.19221100063333    2.00518960479783   -0.60104939271534
C         4.94641133038700    0.91761695527184    0.18302343154795
C         4.41578127883921    0.74255857781040    1.59875984896057
O         3.37810184379254    1.69221144860416    2.00881362804795
C         2.44137924297104    2.15458408039686    1.10043509461265
O         1.52956242452821    2.89121645254982    1.47791225112620
C         3.88395119393760   -0.70402396859617    1.94582121683595
C         3.53380391512524   -1.11478557188625    3.50955920318759
C         4.28174144731251   -2.43462825333982    3.27591535643290
C         5.05429809467572   -1.82859872240875    2.14429182025567
C         2.64956586956413   -1.08593143531973    1.05183512134807
N         2.82959573357816   -0.66317277490928   -0.32967593213234
C         3.23506200205638   -1.68714449604662   -1.28917030021350
H         0.70756812287682    1.13450812553422   -2.33228461854327
H         1.28966188929935   -0.52865659316460   -2.57260034129961
H         2.38788860620005    0.82602032631275   -2.74969947519296
H         1.01799824330713    0.43189892665331   -0.14177290572250
H         2.14760205506638    2.60173579210258   -0.86306359477490
H         4.49275739702581    3.03294241613156   -0.34784899278995
H         4.48608411582537    1.81425844143808   -1.63466796802386
H         5.98676390105255    1.27015280435128    0.25898568710087
H         5.02104844462181   -0.07460082004054   -0.27033429564557
H         5.23975498643519    0.96635310392075    2.28595635246265
H         2.47199312861555   -1.10451035886742    3.76988803628072
H         3.94978165607233   -0.40685174823514    4.23994799132283
H         3.57081266970885   -3.24124370504873    3.08631248865110
H         4.78516544056923   -2.67278607152480    4.21875656600777
H         5.33585364650638   -2.51566575782777    1.31551658844268
H         6.00462946099866   -1.42726709957479    2.49551906305888
H         1.69693443387947   -0.67316662985229    1.41371652390132
H         2.51880897280683   -2.17318053332737    1.06088787571755
H         4.19609549903106   -2.13486216957792   -1.00167758955619
H         3.42929308147445   -1.15815708784586   -2.22748224140042
H         2.61703935243542   -2.58324140738598   -1.37402906536259
