37
 energy: -49.575960133911 gnorm: 0.142647011743 xtb: 6.4.1 (79825abcba525fcdf90b791dcacef51065a7a4e7)
C         1.91471582403823    0.57117743641871   -2.30432595556813
C         1.94490444376072    0.51418958713810   -0.77052169199085
C         2.84292024627072    1.68564274114593   -0.28063674962095
C         4.34853934964437    1.40585227701200   -0.47223596576929
C         5.12640953178249    1.49004577540732    0.85223828182090
C         4.26006680884152    0.93145578034461    1.97203772736736
O         3.09489271260366    1.79982322218764    2.15930915146807
C         2.27309729519271    2.02988082903462    1.06930225612530
O         1.25315686527597    2.71417587875536    1.15867773342063
C         3.90371917423762   -0.60402646142518    1.86617688944801
C         3.75160916591504   -1.25715468449369    3.37842382217951
C         4.80352726097923   -2.30322850669794    2.98449161562653
C         5.17834847074562   -1.61585063019689    1.70710831201114
C         2.58325793284612   -0.95584255854337    1.09069052513799
N         2.60650930465244   -0.71292135584341   -0.34463420931113
C         2.53720719612337   -1.96070980036022   -1.10079005175049
H         1.06864521523778    1.15827323586522   -2.67512638563953
H         1.52042910290691   -0.39762869084487   -2.64048981640703
H         2.79847153712045    0.89691683212194   -2.85839653476513
H         0.94126552425179    0.60262068393853   -0.34466530456003
H         2.61790233496692    2.55459491350124   -0.91404998413438
H         4.68644805894190    2.08220409805060   -1.27166097317209
H         4.45851540138297    0.36542845492576   -0.78305266717386
H         5.51490713546082    2.49253762801203    1.08986181763562
H         6.00675378502964    0.87387054389445    0.64994610485461
H         4.92259340347433    1.04261539814392    2.83803873572674
H         2.73995376360182   -1.61307597557965    3.59100842389148
H         4.14507361933088   -0.48551500294754    4.05476212145436
H         4.43758302228854   -3.32455023487536    2.86208164077941
H         5.59975592673717   -2.45588894452207    3.72057524626116
H         5.00658375753007   -2.20811130753855    0.78086471167483
H         6.16460069864746   -1.15501867456120    1.65713035557861
H         1.75038619764176   -0.38372705465687    1.52410500887475
H         2.40919389513530   -2.03056664061531    1.20884202856470
H         3.32301051641461   -2.61929167837820   -0.70649116123391
H         2.80377235635178   -1.88141831924965   -2.15939222706061
H         1.55920564474526   -2.44016754818935   -1.02479057125805
