37
 energy: -49.575982838163 gnorm: 0.160158193125 xtb: 6.4.1 (79825abcba525fcdf90b791dcacef51065a7a4e7)
C         2.31048676920948    0.59699637228684   -2.41716813626300
C         2.15226434830473    0.41474160069134   -0.90109975617160
C         2.73324465437289    1.69412086276520   -0.23448692593821
C         4.21467229943326    2.06773621886583   -0.45281132122279
C         5.05358223712154    1.07884239359685    0.37466782058657
C         4.47691540457949    0.84002340935429    1.76281197598866
O         3.34900425448672    1.72065104729780    2.07757335662654
C         2.31109971073181    1.94241925297650    1.18877513685136
O         1.29300545628457    2.44852242322950    1.66192397640038
C         3.87605047250715   -0.61922943555077    1.83655768827596
C         3.67286650959863   -1.04922283023857    3.42099030023230
C         4.66818556958903   -2.19572777834977    3.19548846292043
C         5.07624519402208   -1.72975890943719    1.83128622221305
C         2.57954415744613   -0.97675867034903    1.02414409936653
N         2.71446968958545   -0.84085820037288   -0.41912809171487
C         2.24439358147720   -2.06800120625256   -1.05685761967026
H         2.24061473860702    1.66586797609803   -2.64220436337209
H         1.51163744526031    0.05146783872678   -2.93802497254493
H         3.31893956359527    0.28118433048930   -2.69539509374120
H         1.11500086153686    0.47844473879556   -0.55979172552331
H         2.21012325317697    2.39561469285350   -0.89869598249901
H         4.25154997074681    3.06055094942512    0.02012988345239
H         4.36612032240893    2.14531685830442   -1.53087821003242
H         6.09527708076746    1.40582155521361    0.51729230838290
H         5.00547597452281    0.15669011166096   -0.21092676261403
H         5.22437172917950    1.10354537253206    2.51985948001893
H         2.63148556808143   -1.33613718943880    3.58988294385155
H         3.91457284869096   -0.21947884870161    4.09979700432199
H         4.21997508710407   -3.17224323594540    3.38919542424626
H         5.37795834734237   -2.11225340588590    4.02516252222614
H         5.02021665233592   -2.49125274305490    1.02184753699292
H         6.04174755380987   -1.22593179806464    1.79228878516143
H         1.77198165932722   -0.34967723366421    1.42843519018034
H         2.32533706637545   -2.00344546052849    1.30801541066891
H         2.84557695045944   -2.85417038294056   -0.58019720588271
H         2.55744377754549   -2.00693680781121   -2.10387882818392
H         1.17238585663252   -2.26605329962950   -1.11782887085541
