37
 energy: -49.583934298505 gnorm: 0.145018494800 xtb: 6.4.1 (79825abcba525fcdf90b791dcacef51065a7a4e7)
C         2.29601522759227    0.51125120018461   -2.38564183107124
C         2.12462816342878    0.40300478909244   -0.86392448981144
C         2.68981626244146    1.73288169381305   -0.28884893072720
C         4.19071502507939    2.07703065819985   -0.39251296760660
C         5.09744778914246    1.28160256790490    0.56222910975188
C         4.37620135798048    0.84960844931023    1.83097178313098
O         3.25396625678429    1.73041854621031    2.16492574923050
C         2.34920631395341    2.00065071812417    1.15261489832567
O         1.24089451749200    2.44106744445198    1.45954198771977
C         3.85884113261292   -0.64290013748241    1.85651456990921
C         3.71104431682512   -1.10637942768474    3.43763688699156
C         4.75279219566396   -2.20821360759544    3.19950351671319
C         4.97764528480378   -1.83201810223317    1.76681184512999
C         2.53918084942543   -0.95567288850391    1.06314104618454
N         2.75540599065135   -0.81468956346075   -0.36971583704374
C         2.42493326280736   -2.01103476810640   -1.13984334710927
H         1.93165279835457    1.51657384767657   -2.61925755842269
H         1.75433094523836   -0.23055501952885   -2.98843129308912
H         3.33992232768285    0.43322791695866   -2.69916193750818
H         1.05393811474746    0.33637108959176   -0.65027158754462
H         2.14592928536383    2.44801772195333   -0.92105987154887
H         4.29124373019299    3.16648738592486   -0.27549828705012
H         4.46732434798669    1.82812210058342   -1.41853211775034
H         5.99217352354869    1.89479256966167    0.75156778599937
H         5.50637975005733    0.38118306409789    0.09573215138676
H         5.10830868052270    1.04115927287074    2.62380395410668
H         2.69729084926436   -1.47071203052385    3.62441080930021
H         3.96407642899184   -0.30972765248336    4.15107662970399
H         4.40013743871566   -3.21562101195583    3.42920420501054
H         5.62404010657970   -2.12795299550230    3.85797881820446
H         4.45121178317946   -2.46581422882856    1.01889922591860
H         5.92235251736117   -1.48154475707459    1.35177686102643
H         1.67280336672491   -0.35827137413603    1.38148219011338
H         2.31461163387811   -2.01188732557971    1.24554078423641
H         2.81573193756903   -2.90796219814105   -0.64035746618312
H         2.80345318478392   -1.97462964350579   -2.16618638363580
H         1.34930816561446   -2.19638426674975   -1.11122681998152
