37
 energy: -49.575212663259 gnorm: 0.148516620734 xtb: 6.4.1 (79825abcba525fcdf90b791dcacef51065a7a4e7)
C         1.93456985218243    0.58176541721307   -2.25253545458875
C         2.14620745834397    0.49949658687104   -0.73426148548766
C         2.70864126916565    1.88808794547272   -0.31688352639670
C         4.23670030157385    2.00156379669428   -0.50138473188971
C         4.94664793147781    0.97754656443890    0.40070487824638
C         4.22830313123136    0.67378714954524    1.70769923732172
O         3.19313115520279    1.63489653773258    2.09686632588911
C         2.34382151149927    2.13148614765354    1.12297662698186
O         1.32578826032099    2.76271499250847    1.40878185389454
C         3.71063957612392   -0.80085689112165    1.93866526238038
C         3.46806368661644   -1.43098192407680    3.44886527616153
C         4.89848014690879   -1.97693392031069    3.34010005078638
C         4.92717900398694   -1.88942209488745    1.84470530134244
C         2.46805060750966   -1.12127709548830    1.03198165502888
N         2.85040103594672   -0.70406138013289   -0.30945326919034
C         3.07599392988627   -1.78863496574663   -1.26148185571398
H         1.23769271556151    1.38392984805297   -2.51503191601909
H         1.62005751672898   -0.33260337722529   -2.77413411664268
H         2.90952866677762    0.81829325543865   -2.68570334272195
H         1.17386900905634    0.52994640141451   -0.23416593247828
H         2.14551331178015    2.71318558754239   -0.77407500187944
H         4.46489793131428    3.01506897666355   -0.13882780486868
H         4.61133267333107    2.03641583389341   -1.52589407515478
H         5.97600092999446    1.32164099272374    0.58622221114464
H         4.95945134657073    0.02756212956322   -0.14055817821605
H         4.88657241526366    0.90938374595284    2.55175581208402
H         2.70239926287524   -2.20106239679861    3.32216527226354
H         3.18417913158215   -0.71191998020088    4.22991267508740
H         5.00542479162422   -2.92476383026697    3.87130506626496
H         5.56874829923991   -1.25345483180469    3.81593933553654
H         4.56777165639017   -2.86525809133070    1.44875895743450
H         5.81851759757179   -1.58953360000770    1.29412400814807
H         1.74025252877062   -0.36788419521631    1.36597073229692
H         2.04893692204333   -2.12654367955635    1.14631770647529
H         3.56703527678928   -2.57448458444487   -0.67156038843036
H         3.71637794946177   -1.52297469277845   -2.10842672848573
H         2.15908669774142   -2.21841968810742   -1.66978187683975
