37
 energy: -49.571465841764 gnorm: 0.133144718565 xtb: 6.4.1 (79825abcba525fcdf90b791dcacef51065a7a4e7)
C         1.01050332356847    0.45031199417492   -1.34061933748317
C         2.16698930542387    0.32650853646739   -0.33865757695967
C         2.86377294986118    1.71020464990407   -0.20227663020237
C         4.32227621776754    1.79734352919477   -0.69932483919908
C         5.24655336591965    0.95012823642340    0.19193304275961
C         4.64248338080175    0.64575648483247    1.55537742704645
O         3.88871785503806    1.81136103635971    2.02438367401905
C         2.81146537633678    2.16691660487181    1.23097544981440
O         1.92540731069361    2.88102073036354    1.70159482424863
C         3.91240908400911   -0.74345060641970    1.73701183872756
C         2.68114877547594   -0.93239434449697    2.82554433807463
C         3.45472806994874   -2.09168456945234    3.46866637189419
C         4.72785807614174   -1.70020987502265    2.78268171705685
C         3.51047344432906   -1.55353708291613    0.45210747822783
N         3.15447009215418   -0.69400767994213   -0.66779397758315
C         2.92957571435657   -1.43574684804520   -1.90585535982210
H         0.34520773424852    1.24343874404054   -0.98517362992850
H         0.45971910971860   -0.47682390189442   -1.55064135785347
H         1.41524584036405    0.80851680260538   -2.29035474233767
H         1.83750184200261    0.16440926874754    0.69169510941064
H         2.28493282523520    2.41113763151220   -0.81917235562919
H         4.65312728734995    2.82557292872356   -0.48957186109674
H         4.56176469233562    1.39713004544653   -1.68606590060441
H         6.09793628834129    1.62200922296255    0.38195495127131
H         5.69334447820886    0.05561554441329   -0.25058790433753
H         5.46402591014950    0.53108235601088    2.27173866220220
H         1.69685597086478   -1.08218595152866    2.37382653508921
H         2.65751234172634   -0.08674822608518    3.52697111247297
H         3.09240998766539   -3.09837095286907    3.25116788025913
H         3.44990287697898   -1.90682363597501    4.54797520784409
H         5.30190339518836   -2.54496479075824    2.34102105677497
H         5.43260208092784   -1.19594484754878    3.44344644610187
H         2.64946844538289   -2.22717524380732    0.56924676062012
H         4.29737002165198   -2.21067781671706    0.06707533401406
H         3.88114972268329   -1.94584928497683   -2.10831764987646
H         2.80765475685313   -0.75428959050982   -2.75363716071026
H         2.17999565706986   -2.20991904525404   -1.72998654367797
