37
 energy: -49.581303775640 gnorm: 0.131422082361 xtb: 6.4.1 (79825abcba525fcdf90b791dcacef51065a7a4e7)
C         2.21207175917663    0.48252811732715   -2.43661560419689
C         2.13511765555856    0.49549895766403   -0.90344101897369
C         2.93291920362168    1.70383206188655   -0.33584438824248
C         4.44340157240349    1.38710614349426   -0.33275244866213
C         5.07531933462988    1.63187384086150    1.04825128741112
C         4.17233642120663    1.01901347976819    2.10916944907034
O         2.90677414029689    1.75547965480540    2.16144754259203
C         2.22585985130051    1.94413545315385    0.97100477706398
O         1.07902961360557    2.39257209342618    0.95647315231708
C         3.87482731423223   -0.52481657830759    1.95433728990317
C         3.91122073295979   -1.37349695413024    3.37385194345788
C         4.98982924546046   -2.28788308305890    2.77678713375840
C         5.11837660557361   -1.49118826281070    1.51447166959748
C         2.55802791664106   -0.79665036186795    1.14136906659059
N         2.63614807620336   -0.73869706418266   -0.31129989166755
C         2.16513633133463   -1.99978256782900   -0.87818766696270
H         2.53571024191574    1.45784084641670   -2.81348842542355
H         1.20806175437953    0.36921546740263   -2.86809865479744
H         2.86391417043492   -0.30266261827316   -2.82738600301691
H         1.10244971494816    0.50830482790873   -0.54302772194429
H         2.69905774513004    2.56909054496814   -0.97110798221581
H         4.98259914491504    2.07586792162616   -1.00027594359292
H         4.72326043118219    0.37307797873953   -0.62362936179318
H         5.17812505780976    2.70332442205795    1.28022088452315
H         6.05684230859345    1.15005678475545    1.04018763700321
H         4.47113319784527    1.15054543286557    3.15543687800299
H         2.95485441743630   -1.90303188831818    3.35726697175298
H         4.13817216859928   -0.76920878454231    4.26323623382249
H         4.53920724008919   -3.27199636611263    2.63375456584034
H         5.91690766681280   -2.33877182167748    3.35733889404291
H         4.99613846225093   -1.99465135027661    0.52969464474412
H         6.09097117324816   -1.00561380733474    1.43808706325252
H         1.73421708039974   -0.21324769271568    1.57704856271226
H         2.31631075093256   -1.85231619691254    1.30394947241045
H         2.73169770126388   -2.74320670411519   -0.30111112371917
H         2.46150861120417   -2.01796244653995   -1.93166555523121
H         1.07976318131983   -2.09346952204854   -0.80517689563080
