37
 energy: -49.530433891596 gnorm: 0.155892202875 xtb: 6.4.1 (79825abcba525fcdf90b791dcacef51065a7a4e7)
C         0.84348166784363    0.52188021311409   -1.45092468721098
C         2.01814544767866    0.29432269267473   -0.48910503889518
C         2.87268250952806    1.57717877563302   -0.28229893677685
C         4.37664128819422    1.85847804538274   -0.48443897095567
C         5.19553764844684    0.83385277243838    0.31927392936114
C         4.47059230274807    0.62243801262033    1.64074333043382
O         3.75424095903920    1.85247296393749    1.98804448194543
C         2.75947724774901    2.19166335471294    1.08705372534726
O         2.03573869211494    3.12818027296553    1.42714897889217
C         3.72044718172117   -0.76192421624898    1.77004692409105
C         2.84578797845003   -0.98988387946804    3.15554695785103
C         3.95702609247375   -1.94111314259148    3.62062485016325
C         4.88188859694311   -1.67357601264554    2.47269600541782
C         3.33655167003681   -1.56352046925528    0.47434663781013
N         2.60965477092033   -1.02605793276113   -0.66690850786174
C         3.14557528158239   -1.52315673264563   -1.93151611576856
H         0.08863248580305    1.06466168469287   -0.87334274716475
H         0.21209206876913   -0.34841460820353   -1.67672893804649
H         1.13973342921700    1.15049424352147   -2.29425369458241
H         1.46421522026277    0.18514818406966    0.44775516455828
H         2.26748742692914    2.27203491396402   -0.88049383997935
H         4.61666848680323    2.89968859088855   -0.22179476118543
H         4.67063687042320    1.88590728530897   -1.53515193047396
H         6.21064938302503    1.22712280422580    0.48441664185140
H         5.45031310277564   -0.13191336080500   -0.12568145869001
H         5.24045231491940    0.60327169087213    2.42061763154783
H         1.85240617281935   -1.44641737484317    3.14613572005807
H         2.96531578845704   -0.04726768580647    3.70769130259638
H         3.68517575004201   -2.99851152942083    3.61875235023273
H         4.31529230511315   -1.58234617547576    4.59121023837526
H         5.04086957357031   -2.53714434011346    1.78919191399559
H         5.83081857388167   -1.19752011799083    2.71858226228563
H         2.75107510141442   -2.36744863150202    0.94312834434198
H         4.30998664781534   -1.98310387732569    0.19927569285479
H         2.88653178867560   -2.56782814515091   -2.15116734195522
H         4.22412388326755   -1.34640104555037   -1.99044850665796
H         2.61032108299003   -0.97427685050129   -2.70893267371910
