37
 energy: -49.577088333404 gnorm: 0.138980105149 xtb: 6.4.1 (79825abcba525fcdf90b791dcacef51065a7a4e7)
C         2.20275132936024    0.52410170939916   -2.40560520048451
C         2.06835877428118    0.41330328271564   -0.88035872003701
C         2.85150811637203    1.59359207634552   -0.23823913415291
C         4.35744539278401    1.26245820864514   -0.30445943168230
C         4.99525467625374    1.49405884997169    1.07610678244246
C         4.11499925661935    0.95445865447184    2.19436675163789
O         2.93464554417318    1.81943008108419    2.26752993911904
C         2.32365113346726    2.13075720894128    1.06496996611870
O         1.32256356926770    2.84415493472000    1.13854668878757
C         3.80819201798836   -0.56736959318371    1.90144350404570
C         3.92561641025240   -1.40772751799834    3.32151913362752
C         5.12926575835309   -2.17567442119321    2.75807392543354
C         5.06262025472303   -1.50043036814956    1.42230027747112
C         2.48038638155916   -0.79468998327386    1.09272276712027
N         2.58442253230782   -0.84618503927647   -0.35856396632641
C         2.23255451366611   -2.10266036556779   -1.01507679692027
H         1.86489499188255    1.47240689708003   -2.83523326385803
H         1.56593592336166   -0.26031265473508   -2.83713007052955
H         3.21221608546292    0.31448469613707   -2.76777385898215
H         0.99583082983690    0.56115156334683   -0.72450785478989
H         2.67862672910683    2.46384046965989   -0.88608403990455
H         4.81281252696572    1.82277878845398   -1.13475819993307
H         4.44444153456136    0.23463304416990   -0.66109731809796
H         5.16735877665232    2.58137555013228    1.05357159345927
H         5.98809456682507    1.03744320758427    1.03907758719096
H         4.63283106220874    1.11277975336387    3.14727826497485
H         2.99699574257488   -1.96868176529616    3.45684401716571
H         4.05559610285422   -0.77548584273248    4.21092978573258
H         5.14270936492797   -3.26720486610416    2.77751660173443
H         6.10959531878101   -2.04479007359788    3.22810333965469
H         4.71780614830398   -2.24466940849381    0.67035977471086
H         5.97622140984684   -1.01380036297142    1.08159289405881
H         1.79080433538941    0.00942245989313    1.38720431769933
H         2.00897207047577   -1.67389317389047    1.54445302143353
H         2.63918553023636   -2.82302572242415   -0.29229499331464
H         2.71183067829310   -2.13302842171323   -1.99861878038105
H         1.14991007349505   -2.14094761313371   -1.15130379104132
