37
 energy: -49.582520288829 gnorm: 0.140637004755 xtb: 6.4.1 (79825abcba525fcdf90b791dcacef51065a7a4e7)
C         2.47404443667498    0.42589960568927   -2.36084211798141
C         2.16554250792670    0.39138853382053   -0.85739606661594
C         2.96538474172993    1.60133259043897   -0.29613866675327
C         4.50395777075824    1.48202901696267   -0.31715065311869
C         5.03455901545347    1.64260142476597    1.11779931427349
C         4.12881649913899    0.95260634684420    2.12777980476698
O         2.89613036818177    1.73578421204032    2.24559594593544
C         2.31599123007321    1.97006598837484    1.01071139397321
O         1.23465774559075    2.55679413689493    0.95599270704260
C         3.74460776658428   -0.55162923686107    1.83528215936270
C         3.91593757389828   -1.39317960168450    3.24915761640381
C         5.18925449746797   -2.05330446385561    2.70245488267407
C         5.00118039080348   -1.47062905212404    1.33504679154392
C         2.34833950783680   -0.84919971807782    1.17903651067471
N         2.56413045921309   -0.87738236030202   -0.26052886146759
C         1.97400587760369   -2.07440015191521   -0.85420540289833
H         2.27452553391033    1.45349873437071   -2.68059538651436
H         1.66982117706883   -0.04959563383225   -2.93892748664705
H         3.47188484623917    0.10403221747206   -2.66880384219985
H         1.11683492122936    0.66596774711195   -0.71150757954409
H         2.71493193903416    2.49181604538253   -0.88879021923158
H         4.90013688668667    2.23521933720243   -1.01461811641454
H         4.86252946532423    0.48856652160362   -0.59218169730523
H         5.04848201212754    2.68180225091263    1.48146543578072
H         6.04598121540863    1.22889752992132    1.15619547980983
H         4.63231125682032    0.92108421958833    3.10079320660854
H         3.09953307787425   -2.11593029193831    3.32936967935807
H         3.88029534190181   -0.76617183114994    4.15097048592843
H         5.22309720867240   -3.14446391467845    2.68751553693437
H         6.11603791499236   -1.76398544836466    3.20888495016593
H         4.67532741848173   -2.18522967364582    0.54677727618034
H         5.77491619685209   -0.85807664234217    0.87280247841284
H         1.57691875573869   -0.16178000124225    1.55480738257146
H         2.09253183086653   -1.86376392791490    1.50231940078582
H         2.00281101085958   -2.91009125432693   -0.14182965433443
H         2.50094848972074   -2.48217822174256   -1.72255511336937
H         0.93192035523187   -1.86080687733918   -1.10033213775016
