37
 energy: -49.576641240176 gnorm: 0.151591075065 xtb: 6.4.1 (79825abcba525fcdf90b791dcacef51065a7a4e7)
C         1.94980951232933    0.73766356768608   -2.35490278085378
C         2.02091609695695    0.50471471058752   -0.83918739709525
C         2.66731355535468    1.78952274617997   -0.24744362940006
C         4.18323245473785    1.74583935964488   -0.53373630064394
C         4.98788338213217    0.94622003984890    0.50527689476342
C         4.25614038618911    0.67145725959979    1.81125580247488
O         3.14022072473718    1.53881054992114    2.19750039260594
C         2.39251241489042    2.12894175481389    1.19297728156074
O         1.54356303423959    2.94388251084423    1.55585835398352
C         3.69333305138768   -0.80274696546102    1.88784395808528
C         3.42664331172943   -1.39025766264520    3.41110115516700
C         4.91311528641320   -1.77118869481683    3.37536142394869
C         4.95374508316001   -1.84441021862955    1.87947532201485
C         2.47952816019890   -1.15254353528732    0.95345023040967
N         2.64513132537770   -0.74924958344659   -0.43566387335013
C         3.01153372155474   -1.84103693138347   -1.33416266570547
H         1.57866322349655    1.75690500957672   -2.50121484925343
H         1.27060356320553    0.06665111010214   -2.89847891800881
H         2.91700016075189    0.71639510285341   -2.86305080625009
H         0.98948639048968    0.53959753388591   -0.47669500997725
H         2.27273764002901    2.65664234646348   -0.79456034217315
H         4.51600976916395    2.79434182521957   -0.50891164873245
H         4.38432101055187    1.20446258442039   -1.45983459952910
H         5.94912528956268    1.41252372063081    0.77166032032945
H         5.29755983173873    0.01383229474341    0.02532519278350
H         4.85482243565336    0.74134194242875    2.72665279032091
H         2.71919330866553   -2.21982061396536    3.32950065728776
H         3.12690558395939   -0.57048848331014    4.07879221907165
H         5.13693527178444   -2.69397687291374    3.91421581770937
H         5.55272163385894   -1.02253831714221    3.85445509527625
H         4.68937890249224   -2.82324311951628    1.42099989653129
H         5.93651179888912   -1.54084988723700    1.51950578869864
H         1.63776904488025   -0.63323240113023    1.43365553442551
H         2.25879598189067   -2.21875068111133    1.07079392411589
H         3.72968970681131   -2.42399904639765   -0.74162936538553
H         3.60364453093944   -1.38558622497264   -2.13413274824353
H         2.17432562457229   -2.41534622451247   -1.73590153015517
