37
 energy: -49.582226922998 gnorm: 0.133509218419 xtb: 6.4.1 (79825abcba525fcdf90b791dcacef51065a7a4e7)
C         1.94641168993168    0.64991986853915   -2.40292555481824
C         2.00031486981962    0.39400647715429   -0.89020704833622
C         2.74979265004879    1.62311406854948   -0.30173467886031
C         4.26903615017370    1.61472634241506   -0.57323181990384
C         5.13393062698991    1.42446473259937    0.68460786023800
C         4.35932367713029    0.96680035918148    1.91222779250467
O         3.20295391392195    1.82485620618678    2.18299051199973
C         2.31713641710589    1.86280322804435    1.11984581086877
O         1.18322177982116    2.29543502615507    1.32863641269199
C         3.84650143771215   -0.52659175816264    1.96408568213210
C         3.76189638614654   -1.17656518858226    3.48296066983469
C         4.75752408647210   -2.26221851984318    3.05160579604947
C         5.01345407203104   -1.64374975788973    1.71120151890555
C         2.59872442367355   -0.86268109918445    1.07029148449478
N         2.76481720300572   -0.73299625289954   -0.37029988032198
C         2.56182741409255   -1.96650596581225   -1.12581255322106
H         1.37587063878411    1.56915136145990   -2.56877574850520
H         1.39508434886951   -0.22278423613079   -2.77906274350581
H         2.98425737868563    0.65158481891910   -2.74497538297032
H         1.02153639840660    0.42308027348653   -0.40275219299168
H         2.38278934128383    2.52342294562528   -0.81327722264340
H         4.53632817792100    2.54386361942585   -1.09856344722615
H         4.56623176890495    0.77897754569813   -1.20914234434961
H         5.67838649591268    2.35261717061217    0.91803046764705
H         5.90432792402584    0.67553194011760    0.48166026656596
H         5.00626379880244    1.18250750582338    2.77024562920948
H         2.77424127258910   -1.49949381556717    3.82292141084690
H         4.08548666460103   -0.49300118491850    4.28027186647977
H         4.34550713150266   -3.26818810456708    3.15292057262585
H         5.64627182115845   -2.33181850894356    3.68752066031145
H         4.92920743012037   -2.36405536670154    0.86724336544198
H         5.99939639026941   -1.20937565174449    1.54751206314422
H         1.70464791163047   -0.37098695008656    1.47980784184299
H         2.41922705242756   -1.90600904186570    1.35053678922903
H         3.09032607665873   -2.81053657257326   -0.66214234257804
H         2.88964901450393   -1.82495703171770   -2.16045239157086
H         1.49092769761445   -2.17907910688402   -1.13717708695782
