37
 energy: -49.582069233135 gnorm: 0.131367409831 xtb: 6.4.1 (79825abcba525fcdf90b791dcacef51065a7a4e7)
C         1.83051104369956    0.62683667973077   -2.35622185193579
C         2.06975393222933    0.43327940771345   -0.85222288524390
C         2.65663508494427    1.76190561567948   -0.29630472721193
C         4.17701295614634    1.98578065965817   -0.43847696616810
C         5.01851708463939    1.01987666976468    0.41317019045793
C         4.33436209643648    0.62769533590665    1.71495706390835
O         3.30936122285977    1.60666414180567    2.08611282184881
C         2.35506100424406    1.99204958347885    1.16027352510979
O         1.30964949643279    2.52451310056684    1.53460433329512
C         3.78115789116077   -0.84828619193348    1.82144449470919
C         3.51158114885577   -1.15745557837691    3.42405093327434
C         4.89172154342814   -1.81647520681373    3.55401370069062
C         5.06680414309692   -1.82860659924844    2.06610029427620
C         2.51625916536318   -1.09722562739076    0.92320623568842
N         2.81504091219666   -0.75665693862863   -0.46043059745783
C         2.83784883945034   -1.88256558302248   -1.39067785637949
H         1.10872586108115    1.44225353955081   -2.46636451158589
H         1.47105839769170   -0.19830664487102   -2.98628990247719
H         2.77542582237997    1.01557312197847   -2.74370677609707
H         1.04060576658803    0.39445053788517   -0.48369720962259
H         2.08185971006371    2.55445411869061   -0.79472562879327
H         4.37213161846052    3.00808489998602   -0.08135349156607
H         4.44870605649042    1.94745520606694   -1.49483746058476
H         5.99624760612063    1.46273139048403    0.65874702387664
H         5.15954284983523    0.14362577050872   -0.22549728431431
H         5.04994347919143    0.80037359939029    2.52697997588679
H         2.72543388648519   -1.88732906145029    3.63518125354833
H         3.34154020844214   -0.33732681971472    4.13549345388625
H         5.04733216275484   -2.72024151504574    4.14645716194210
H         5.68237194487090   -1.15760533136580    3.92800145408194
H         5.00682410528382   -2.82329992489791    1.57093303315211
H         6.00679504880139   -1.40954237274916    1.70782717296948
H         1.71920711796883   -0.43562098747936    1.29175329260635
H         2.19930180706822   -2.14334715922415    0.98997224231398
H         3.50658133222830   -2.54169284696271   -0.82055798297261
H         3.25409754057685   -1.55893812436952   -2.34983633107287
H         1.93172474910119   -2.45309586293543   -1.60416559524359
