37
 energy: -49.579547737858 gnorm: 0.152370550637 xtb: 6.4.1 (79825abcba525fcdf90b791dcacef51065a7a4e7)
C         2.12177854411488    0.49705779860224   -2.40936046458712
C         2.11001159569312    0.47489882998896   -0.87440606950160
C         2.74433585965179    1.76182256437553   -0.27425430695557
C         4.27040145881332    1.96492092272926   -0.38268270798038
C         4.94109474833494    0.94614351394892    0.55468900646754
C         4.26105589919436    0.77220361028356    1.90517611586668
O         3.16034661409671    1.70966400812268    2.14260064961682
C         2.29358396447153    2.07563188040751    1.12713066328928
O         1.29542841729101    2.75243804506641    1.37641985779265
C         3.73028673732852   -0.71504428927316    1.95286030326241
C         3.65429213532871   -1.25249482460210    3.51554277032389
C         4.75478644299415   -2.24057589227544    3.10494224386937
C         5.05700409967841   -1.65140657335159    1.76098115579452
C         2.44468253178425   -0.97306265584081    1.08716982817748
N         2.72630195916496   -0.72385010106096   -0.31934788088100
C         2.83836099686480   -1.90307359189010   -1.17399703888095
H         1.56190145206813    1.42181270151211   -2.58075453577594
H         1.56089995548283   -0.33578414397107   -2.85527858904929
H         3.13323467299518    0.61991040676744   -2.80431395491026
H         1.03945804998797    0.48957234113811   -0.65043152169810
H         2.27448312559642    2.51588161314933   -0.92044052791648
H         4.38912203707133    3.00525856276273   -0.04457406087276
H         4.66264394475698    1.84394645193540   -1.39396629491350
H         5.97564918654339    1.31259920679210    0.64296477833229
H         5.00404060811922   -0.04032562866123    0.08723150884231
H         4.86653053280966    0.88457475043422    2.81183422016100
H         2.69477527315077   -1.74688921400580    3.68938298510980
H         3.97347768673330   -0.51644198103458    4.26655699580091
H         4.48558815017392   -3.28771145578687    2.95316327187582
H         5.64417184602572   -2.13271950449570    3.73459692584483
H         4.89757719946843   -2.24768074617642    0.83510685238842
H         5.90661748474957   -0.97212983237769    1.69542524564894
H         1.63930003450702   -0.27369253137102    1.35377829089644
H         2.07124905314845   -1.98139306966507    1.29479243861672
H         3.39825584947633   -2.63388495534140   -0.57472992806241
H         3.31858124833559   -1.73054195771256   -2.14229659916754
H         1.86773773325693   -2.35071031598162   -1.39683001119567
