37
 energy: -49.576402536555 gnorm: 0.156150678252 xtb: 6.4.1 (79825abcba525fcdf90b791dcacef51065a7a4e7)
C         2.25502526581393    0.56778400317514   -2.46378069288125
C         2.09449886027569    0.43389904670754   -0.94291890755860
C         2.60052286001179    1.76008859604060   -0.30740092863063
C         4.09309910506069    2.12417279369323   -0.45416852242140
C         5.04515100392250    1.16243872353780    0.27731447697061
C         4.47549345993664    0.87591968087133    1.65931319318571
O         3.37544738906042    1.75681150889671    2.06017671602975
C         2.32459502172213    1.87964505477336    1.16742227187414
O         1.24233228393640    2.13363371084310    1.69725556079185
C         3.94862697426437   -0.59334719285825    1.90336752930447
C         3.70986950552845   -1.04039147359133    3.47809005086122
C         4.49763462662290   -2.32988379175192    3.20860836360804
C         4.97673830454126   -1.86436061735985    1.86755085694451
C         2.62025848045315   -0.88543954948192    1.11667137593556
N         2.80993971709130   -0.66737727609576   -0.31027583517661
C         2.62397991259608   -1.93301235150726   -1.01535545882920
H         1.95464002283751    1.54649750988397   -2.85094794974699
H         1.79444957046804   -0.30929931049705   -2.93880528007693
H         3.27043493446865    0.46535689120082   -2.85439100279443
H         1.02997011484899    0.29927721018267   -0.73050347691260
H         2.10079040146165    2.60246819178791   -0.80498242976359
H         4.15385065866717    3.12136651090946    0.00694792373106
H         4.30427887416225    2.14851295748913   -1.52467968521817
H         6.00301715955655    1.68466538767885    0.42616676990412
H         5.09477613606880    0.27294589573602   -0.35667283249952
H         5.13561123726184    1.02348227515077    2.52170841291637
H         2.66793428899022   -1.09478989402376    3.80478662484427
H         4.14586736958913   -0.22905263266613    4.07751537595726
H         3.76313061708179   -3.12927703295548    3.32467631011439
H         5.23327911758560   -2.42054409570111    4.01465569652845
H         4.76610291877977   -2.66758917366508    1.12683521698723
H         6.02125268297391   -1.55372050588736    1.87460753414974
H         1.78088660237232   -0.25954258339367    1.45215229148689
H         2.43155969597535   -1.96015145101495    1.20982199274943
H         3.03635112697735   -2.75669597020379   -0.41687083531279
H         3.04021881366715   -1.87965483760698   -2.02623668372632
H         1.56445329566069   -2.17436167772042   -1.12164066798463
