37
 energy: -49.577997102418 gnorm: 0.133386425331 xtb: 6.4.1 (79825abcba525fcdf90b791dcacef51065a7a4e7)
C         2.10792603892552    0.50037592242314   -2.34472043585679
C         2.12839126370003    0.40942813385037   -0.81239404410534
C         2.74563313224736    1.72835194556076   -0.26634041147292
C         4.24330525269118    1.99990448884740   -0.52152524826370
C         5.06601506508494    1.13981272401374    0.45304816062877
C         4.37451905795584    0.93405640553179    1.79320521443100
O         3.36474969696307    1.94785936108608    2.10837614173930
C         2.36058834403556    2.02360507998145    1.15847518754426
O         1.20736075849146    2.36504676412598    1.42306901113028
C         3.89541791753246   -0.56277607851780    1.95398622116774
C         3.67899382857357   -1.12280405513022    3.49545759223227
C         4.45458914007397   -2.37437766463868    3.06186778690577
C         5.10610010414506   -1.66123920801870    1.91659297043407
C         2.66453849299245   -0.93520964148390    1.05121233621958
N         2.85764720326224   -0.77753693421110   -0.38320629449886
C         2.45749857035885   -2.00412570259981   -1.06797744786897
H         2.25331238838880    1.54990005572752   -2.61925972012599
H         1.21384088685263   -0.06828629038906   -2.63504525827196
H         2.97184567081880   -0.05855144984202   -2.71264378878116
H         1.08842725092559    0.43757341379035   -0.47453681334265
H         2.13047391250528    2.47025943250449   -0.79366923716857
H         4.31537641237375    3.07726558234118   -0.30983383509733
H         4.62619547260577    1.85196744187560   -1.53280818812544
H         6.00487128791597    1.67736169822050    0.65792704521993
H         5.22123283785637    0.16854409396231   -0.02459683847313
H         5.13442282345861    1.14743072175850    2.55364809435400
H         2.65569509611134   -1.42596111945719    3.73267969895978
H         4.16591140412745   -0.47479644337980    4.23753102087307
H         3.78396162675543   -3.11375675027302    2.61962942314470
H         5.17282618348989   -2.79969838235728    3.77062885275509
H         5.08235301989357   -2.25406770715005    0.97521446603982
H         6.04889968571779   -1.11956087162423    1.98919389064005
H         1.74959093401777   -0.40087200312092    1.34480023256236
H         2.45886991562655   -2.00767734859567    1.13369498891180
H         3.18055957751899   -2.75124546380257   -0.71345888475043
H         2.54319636784922   -1.89475613781823   -2.15364631250374
H         1.45248995516131   -2.33746299723231   -0.80154429435272
