37
 energy: -49.575927654555 gnorm: 0.142356665796 xtb: 6.4.1 (79825abcba525fcdf90b791dcacef51065a7a4e7)
C         2.27417880350281    0.57521366510873   -2.44611551082989
C         2.08918981345907    0.47278729335867   -0.92558849731011
C         2.62210796956792    1.77103136765689   -0.25530297878058
C         4.11982017321093    2.08075257118769   -0.46221549440797
C         5.01311043375876    1.12895709341805    0.35173812215798
C         4.43818722817028    0.85317349110289    1.73374031411670
O         3.22843489937559    1.59620019183092    2.09591977508942
C         2.22028422248755    1.88120761584110    1.19104837904721
O         1.10231229796853    2.18328880382518    1.60987042417028
C         3.90367305259644   -0.63045046082972    1.82887475885878
C         3.68622442160764   -1.09132348744133    3.40269714658744
C         4.89668391052429   -2.03162367274502    3.32140696532099
C         5.05644829250112   -1.78992016923658    1.85146065463028
C         2.55931147178677   -0.83511206702715    1.04174247974124
N         2.77130888435008   -0.69991154386876   -0.39230298627070
C         2.46930035041470   -1.99262053459103   -1.00160158229635
H         1.30423761410976    0.57042954849825   -2.95326550064938
H         2.91315454968213   -0.23954744779697   -2.81344070054009
H         2.89281257572889    1.40413331418004   -2.79869031974505
H         1.02103024671961    0.39277681758577   -0.70400718865871
H         2.03987874966082    2.51374472448964   -0.81771676655585
H         4.43435159985539    3.11763156799134   -0.27073089366732
H         4.37845739741908    1.91323085252222   -1.50922396820136
H         6.07116973270145    1.41486306961409    0.45734850947840
H         5.05326965201520    0.14843038960489   -0.13050111407049
H         5.04940954784245    1.08047867383102    2.61464629627915
H         2.70430136393170   -1.53403568062113    3.59018545138784
H         3.88381027328289   -0.19613645302224    4.00872980293259
H         4.78837161119502   -3.07336202477325    3.62970408553757
H         5.75025209441560   -1.58386669365047    3.84106017197666
H         4.79048547455916   -2.67814154580304    1.23621305412713
H         6.00690179143622   -1.41998766989894    1.46760461602846
H         1.78350908113221   -0.17114569573947    1.44931936876545
H         2.16630030471203   -1.82689408779200    1.28913000963818
H         1.44767003016568   -2.38284731761070   -0.89824244655549
H         2.93911340986335   -2.77383149225732   -0.39582288673856
H         2.90842526178162   -2.09260524033731   -1.99624476719731
