37
 energy: -49.577610428299 gnorm: 0.145695078201 xtb: 6.4.1 (79825abcba525fcdf90b791dcacef51065a7a4e7)
C         2.01723246290525    0.49217986757706   -2.33926599149295
C         2.07339960447956    0.35149100132272   -0.81159902554274
C         2.61746183965195    1.72450185026440   -0.32419819793554
C         4.10913927715417    2.07075364982611   -0.51626582157240
C         4.91938029104272    1.11140401880722    0.37230628104224
C         4.36524137864662    0.81425807786980    1.75836460145360
O         3.19842806672552    1.63556280559096    2.09118370226130
C         2.31042529117020    2.04928001876310    1.11308432930925
O         1.38858100538636    2.78618483623686    1.46479525116633
C         3.85137810652205   -0.66743393923072    1.94922906567001
C         3.72419333399826   -1.08201255946157    3.54564797432015
C         4.75788724797509   -2.19550337794075    3.32747420453013
C         5.00197379101991   -1.82805056154440    1.89566151373647
C         2.55911874964438   -1.00784137709499    1.12281503635551
N         2.80208705915938   -0.80174180005772   -0.29781785773189
C         2.80462613275058   -1.95638096772595   -1.19244202017810
H         1.77830272198050   -0.36645808206237   -2.97461105548747
H         2.96736892155819    0.84087982387104   -2.76670313843951
H         1.23785866609387    1.24389982481418   -2.48629699618742
H         1.03534712480411    0.19884182057805   -0.50239024031251
H         2.07732830037671    2.48863921175825   -0.89976149900155
H         4.24569390392429    3.14252490811639   -0.30800246583092
H         4.41688367688346    1.95206661945964   -1.55664568112337
H         5.99744260678458    1.31501381815917    0.46563337385481
H         4.97840110196870    0.20013706985403   -0.22911632047745
H         5.03993607548725    1.18486074951975    2.53855459675990
H         2.67559114375619   -1.32204408762244    3.74093532494291
H         4.14035075839049   -0.29154038106532    4.18568102175589
H         4.32411656752273   -3.19547974317031    3.38982585534855
H         5.57605372479587   -2.23170716142009    4.05438362927168
H         4.70495620261774   -2.60499461742410    1.15651232209118
H         5.97515042051128   -1.44570793175940    1.58858054475648
H         1.77198380629513   -0.29748200283303    1.41375788751106
H         2.31049458182417   -2.07295031981943    1.17775951273670
H         1.87103900145390   -2.48526057708949   -1.42779278483358
H         3.41066065872002   -2.75763430428857   -0.75804826100261
H         3.37099201156719   -1.57698511406238   -2.04533777759374
