37
 energy: -49.528901078605 gnorm: 0.158464202418 xtb: 6.4.1 (79825abcba525fcdf90b791dcacef51065a7a4e7)
C         0.80443617072307    0.45593430557938   -1.24571482251065
C         2.12807692119418    0.34093404031897   -0.47664750992483
C         2.70142236989035    1.77963271453985   -0.33472070455673
C         4.14435897174358    1.64909807919836   -0.86648806206575
C         5.08815379525478    0.88622113045054    0.07885454780061
C         4.53821416227065    0.58309369922396    1.46529005029376
O         3.42366530576350    1.40405774311647    1.94545894672603
C         2.64583508047191    2.18980921576111    1.11241392959156
O         2.11834044306766    3.19691848421891    1.58570716264772
C         4.00655077919798   -0.84992775105472    1.86488914215740
C         3.01208230609727   -0.89822806629978    3.18598876759790
C         3.73366792059973   -2.14514015324840    3.71561990928851
C         4.82202050353770   -1.99754674420236    2.69660458499681
C         3.42822391583041   -1.48237369398530    0.54795264545664
N         3.26486940317456   -0.56654295191827   -0.57199278321696
C         3.39892970129083   -1.09113741115069   -1.92859844379935
H         0.36442717318216    1.43439792602617   -1.02889478509178
H        -0.01118864981680   -0.25671906649487   -1.06150089278304
H         0.89454064338429    0.35904071067899   -2.33043475205786
H         1.65023096317043    0.09895025048137    0.47706727743925
H         2.12106526393257    2.53347936355227   -0.88410590458207
H         4.56236082656095    2.64555384014848   -1.07400861388780
H         3.96152306262839    1.08155494904878   -1.78062662162578
H         5.92652787398244    1.55568667689003    0.32650357594327
H         5.46773765383349   -0.08938359744326   -0.23691679477664
H         5.28758239496513    0.78620183106871    2.23888556833527
H         1.97694178897401   -0.90560625595437    2.83420971815295
H         3.19321239074624    0.01601364840917    3.76825120096418
H         3.18106287616467   -3.08204788726473    3.62165703208690
H         4.14784298200714   -2.00192570186345    4.71914023697291
H         5.03490743304063   -3.00954695422281    2.28582757944132
H         5.72334169581314   -1.48752767593664    3.03580660784698
H         2.44461408768085   -1.92921408058807    0.75212160082124
H         4.13178765087377   -2.27959397966144    0.28579276520924
H         3.38712512512462   -2.18910650400929   -1.96042735825622
H         4.38248662208446   -0.85624610461973   -2.34743557940189
H         2.61768851868525   -0.67576601504827   -2.56834175352075
