37
 energy: -49.579878479693 gnorm: 0.142856035288 xtb: 6.4.1 (79825abcba525fcdf90b791dcacef51065a7a4e7)
C         2.79905399228636    0.42646918757478   -2.40759898537306
C         2.24325390795339    0.44684598602709   -0.97673018857512
C         2.65442344657658    1.77284492888732   -0.27573913167571
C         4.16723506274214    2.07784398054880   -0.29181493376208
C         4.88700823831644    0.98500314330515    0.51690510173182
C         4.19527998932269    0.74218083538582    1.85072393935776
O         3.06795185527121    1.63026494131569    2.14602245493173
C         2.19334560632800    2.00051816260159    1.13886521391414
O         1.27395872829099    2.72842379067295    1.51490686144771
C         3.71642501125232   -0.76117166738109    1.93150214886598
C         3.75181922180859   -1.34456530699779    3.47908214109203
C         5.16174289333442   -1.86707370366853    3.17072371137752
C         4.96137982216550   -1.79290382116548    1.68780737320808
C         2.39842671645105   -0.91915196547646    1.09085101281009
N         2.65053991269216   -0.79856150159604   -0.33799653576944
C         2.14086585290645   -1.89466934176460   -1.15795410017760
H         2.81619161544544    1.48915117026559   -2.66917730353262
H         2.26361372940919   -0.15186273276281   -3.17303309299715
H         3.82323150122306    0.07209756840071   -2.26757858233714
H         1.15481014697101    0.47440857546453   -1.08158853862405
H         2.17621436921734    2.52525154549359   -0.91770767634269
H         4.36504875774628    3.08846251801909    0.09578580521593
H         4.53476956475798    2.01960821134411   -1.31783172949899
H         5.89886763974094    1.33182088349819    0.77813923701330
H         4.77433797925043    0.09379992809271   -0.10652276111053
H         4.83457232618335    1.02334857086944    2.69541661934920
H         3.08235615088466   -2.19993383726712    3.60351167132914
H         3.73786156407120   -0.58486836769502    4.27302250891775
H         5.32903107237497   -2.88630237550952    3.52453869496863
H         5.97712914300494   -1.21256824434014    3.49610391819767
H         4.62328660915625   -2.71199217117385    1.15943948388847
H         5.69302078834975   -1.40199417259773    0.98109066503269
H         1.66863846101504   -0.16844970342618    1.42655149055757
H         2.07658742265051   -1.93971475680162    1.32357615110513
H         2.45952975013038   -2.83627712595541   -0.69049643743358
H         2.59859859960983   -1.94849197269412   -2.15071114431205
H         1.05244826801456   -1.90234624158133   -1.07175132490019
