37
 energy: -49.583568918416 gnorm: 0.135608111456 xtb: 6.4.1 (79825abcba525fcdf90b791dcacef51065a7a4e7)
C         2.29608119838389    0.37917618436144   -2.35227930063514
C         1.97697005797276    0.39723933901280   -0.85076130624212
C         2.73503961072012    1.65145110021951   -0.33017940690867
C         4.25581491083202    1.40497030449661   -0.42167557409491
C         4.96168353079597    1.56513887092807    0.93571092521322
C         4.21657587536096    1.01302182026995    2.14256827094716
O         2.98129454638832    1.79502622693312    2.23906927319538
C         2.31744604132892    2.06659121642145    1.05503091396281
O         1.35583792862296    2.83515274379959    1.08893049024231
C         3.90079306548360   -0.51552429515864    1.89818353898346
C         3.90704157975858   -1.38846857594701    3.30336465204699
C         4.87589425300975   -2.38676291714816    2.65473717021742
C         5.11955693493533   -1.51431016322272    1.46136292788901
C         2.50555249196183   -0.77060917079920    1.22216058036035
N         2.57392774009362   -0.77997458783249   -0.23212465778565
C         2.32144222728022   -2.06466275198146   -0.87971853693947
H         2.32687442824079    1.39964651029573   -2.74687023216023
H         1.49858347197694   -0.18638441392141   -2.85346993911155
H         3.25284268869189   -0.12409594019942   -2.51180718092458
H         0.90465816810366    0.53006535174718   -0.68055773062244
H         2.46661396979810    2.50706726102771   -0.96483829931763
H         4.68935079776856    2.09289115059542   -1.16297575888474
H         4.41492352958881    0.40357770305812   -0.82550818771718
H         5.14178346280984    2.64145367461613    1.08232510116858
H         5.99781982237023    1.22021796548607    0.88047329019117
H         4.75632399910622    1.19910740048223    3.07814285646744
H         2.95284685530435   -1.81490940436621    3.62426880874292
H         4.49103457442320   -0.86526107855190    4.07335274447906
H         4.41167249763616   -3.31666942683145    2.32041770163174
H         5.77555515057343   -2.58604158843747    3.24634742242193
H         4.98106887862880   -1.98404820045368    0.46217812741439
H         6.09302625316906   -1.02507923033288    1.43753159710985
H         1.87357793739563    0.00959156269745    1.67019470030939
H         2.20371606005653   -1.75641533393635    1.59144489264637
H         2.49108852700996   -2.88627782911262   -0.17059417560033
H         2.88226225655582   -2.12637641023532   -1.81761779106969
H         1.26268770584642   -2.20506627330683   -1.10658502820910
