37
 energy: -49.582703888892 gnorm: 0.148883140420 xtb: 6.4.1 (79825abcba525fcdf90b791dcacef51065a7a4e7)
C         1.89722753692398    0.42493326782333   -2.38117459764389
C         1.94300844400806    0.38083227169233   -0.84733181403048
C         2.55601582826630    1.70095227314594   -0.29940186239755
C         4.07146354626943    1.94326292579016   -0.46245284922317
C         4.97677058485643    0.96978922453467    0.31160834661658
C         4.44866122910053    0.88124654628172    1.73631324485040
O         3.29680469049179    1.72086400309828    2.07547746667489
C         2.26256046348991    1.86894963943761    1.16729313505922
O         1.17375201345121    2.28290846340416    1.56686844200348
C         3.87612096357452   -0.57857259762304    1.92872346530722
C         3.66324644661915   -1.03385471043219    3.50479687360799
C         4.78299992004409   -2.06823795370173    3.32538624938603
C         4.99644593562957   -1.76834013440736    1.87308135908912
C         2.57210962928976   -0.88569426151046    1.10774699257652
N         2.80807444661459   -0.66296222321137   -0.31155548084696
C         3.10432393364837   -1.81760825770742   -1.15569956258785
H         1.18171660496562    1.23681239083075   -2.54520602975231
H         1.43878707129048   -0.49273057049260   -2.77459407629276
H         2.77087812956943    0.64078458800346   -3.00106762567632
H         0.89709522085097    0.28124349475858   -0.54300895309481
H         2.15193987710427    2.57820266629074   -0.82292610633285
H         4.26417795699899    3.01684765716698   -0.31756873387783
H         4.37112110454557    1.79478832306929   -1.50136772821980
H         5.96439944274122    1.45563206675951    0.28109215923145
H         4.90358574799078    0.00854481465623   -0.20438896153946
H         5.22317320673436    1.06854520496977    2.48884637973230
H         2.65942562430755   -1.46626938586384    3.47871721612406
H         3.77665187255307   -0.17817601264928    4.18496505002793
H         4.54495917807028   -3.11295199418564    3.53492536752934
H         5.63630310834403   -1.78359410802128    3.94985078953430
H         4.74713313787244   -2.59160299006486    1.16718870298900
H         5.99568857496730   -1.39808891888623    1.64507795807462
H         1.80096974826156   -0.21729838377331    1.51692891303630
H         2.30451163059410   -1.92237527084297    1.33790722539269
H         2.25548949123317   -2.48748993802563   -1.34916063173269
H         3.91544804845157   -2.39459288619779   -0.70056320531424
H         3.42872658503679   -1.35514986076319   -2.09006450463790
