37
 energy: -49.577743533718 gnorm: 0.137915562511 xtb: 6.4.1 (79825abcba525fcdf90b791dcacef51065a7a4e7)
C         2.17532706119267    0.52632303957108   -2.42725528385446
C         2.14594959620897    0.39660444467750   -0.89786830017484
C         2.98311442360943    1.53388255478072   -0.24635030567907
C         4.50137885447483    1.25704949973960   -0.25723362912883
C         5.04745858469074    1.57473389044842    1.14536260027284
C         4.08379699605702    1.00832711356257    2.17835004138454
O         2.90041495032281    1.87208259423981    2.19557599741357
C         2.28985803895405    2.08365626404910    0.97130229064225
O         1.19692713447402    2.64786915653373    0.91054019963808
C         3.79145654899137   -0.52765610596648    1.95210112504554
C         3.89289407754808   -1.44402161293903    3.32563285608889
C         4.93831150908808   -2.29851487201947    2.59561342414121
C         5.10713123580754   -1.35508647023245    1.44403617888626
C         2.47815313330343   -0.80240851253499    1.13447230170589
N         2.69204048052450   -0.81824738709678   -0.30556582817781
C         2.20340857460379   -2.07901769464808   -0.85805797164577
H         1.36302054756838    1.20335897254010   -2.70972720861589
H         2.02386607335134   -0.46326310088009   -2.87983932235716
H         3.15513128021832    0.89693028380692   -2.73831555636964
H         1.14631005678459    0.53173308310441   -0.47487200587872
H         2.80731205385542    2.39951681738501   -0.89956859621315
H         4.91092908422502    1.76451791651934   -1.14349478990469
H         4.71697632739802    0.19470888863394   -0.38425190372668
H         5.08416406092739    2.67061365423294    1.24578929306257
H         6.10141490208183    1.30812732519190    1.26239710145834
H         4.58406466081626    1.14138963333147    3.14441543572213
H         2.99896285152568   -2.03287550735289    3.54802190289351
H         4.29979927078275   -0.80655625437737    4.12296694585855
H         4.44077412461582   -3.22005282944615    2.28703311263407
H         5.93400613204924   -2.43011838623918    3.03193571942649
H         4.97493575648023   -1.67520979004748    0.38656350279438
H         6.02034191509300   -0.76206928901975    1.48801622743167
H         1.75886303868178   -0.03038210379692    1.44340044448720
H         2.14601761916065   -1.77460390540762    1.51369790965440
H         2.70842320973858   -2.93503620703243   -0.39021067445585
H         2.36452936861724   -2.12568952322144   -1.93965148572679
H         1.12829493631787   -2.26309483101366   -0.80918089679614
