37
 energy: -49.577600566753 gnorm: 0.143113486840 xtb: 6.4.1 (79825abcba525fcdf90b791dcacef51065a7a4e7)
C         2.34223498311824    0.64958318281651   -2.44767833644689
C         2.19545841474301    0.41483422973197   -0.93769023628756
C         2.67470314821755    1.72277406846363   -0.24606896513674
C         4.16656084457614    2.05387946061328   -0.46196637138723
C         5.07168782038150    1.08953947451585    0.32365195880799
C         4.41878738848551    0.82282524606683    1.67239503528605
O         3.26718028534421    1.60250887851004    2.13354343880511
C         2.26685643085354    1.81279843112246    1.19999121238678
O         1.14638333293131    1.85485852775153    1.70920350260988
C         3.89766018276420   -0.65822241290382    1.84795201421632
C         3.64896706416054   -0.94101627450411    3.45878537464562
C         4.92859113648583   -1.78839362543187    3.43645678885371
C         5.04216295888369   -1.82220906321643    1.94292227031628
C         2.63838948198656   -0.95626103601495    0.95678316192491
N         2.85329385487367   -0.80084166760904   -0.47477871621076
C         2.17376956307999   -1.89693468335027   -1.16061930861923
H         1.95054718718826   -0.17400023142922   -3.05290634540351
H         3.40592710331462    0.85826393172950   -2.62674505713596
H         1.72506962562468    1.46905239168429   -2.82411115185461
H         1.13387919486712    0.34303903608343   -0.68399784875307
H         2.10051225147825    2.43913078503513   -0.84944374799460
H         4.36836874611572    3.08270101574550   -0.12802894143282
H         4.39188753071800    1.98908170648057   -1.52789911634449
H         6.08163461173114    1.51444616699333    0.43249608241498
H         5.25434042965130    0.07436202322912   -0.03918798042445
H         5.15836652029868    0.91538880575587    2.47595612053623
H         2.76217685070342   -1.52299180477568    3.72378808787987
H         3.66569665540978    0.01393249443059    4.00235555605656
H         4.82583985289584   -2.76019178556765    3.92333251578661
H         5.79490362128920   -1.30761038146323    3.90277702594154
H         4.60696351189543   -2.74401234911100    1.49673487594502
H         5.97205243504533   -1.55038144506901    1.44395065550708
H         1.82763124550159   -0.29160513444759    1.28805831515915
H         2.19443662190427   -1.92723553871293    1.20051315853887
H         1.09684551512355   -1.90759884934280   -0.94426441480515
H         2.65976028361689   -2.81121707831141   -0.80581876758108
H         2.37949173965623   -1.81104427346796   -2.22947099264867
