37
 energy: -49.575568526649 gnorm: 0.144631153614 xtb: 6.4.1 (79825abcba525fcdf90b791dcacef51065a7a4e7)
C         2.16907119268317    0.50494364294727   -2.49417375742828
C         2.06053064510856    0.48686523799255   -0.96296293177844
C         2.84573383232732    1.69131165450547   -0.37009962063708
C         4.37220051143249    1.49656727842625   -0.48781097557610
C         5.01705462584516    1.58935917703412    0.90572963361408
C         4.28950396800652    0.98293457589114    2.09713323834991
O         3.03515071381660    1.72902920550972    2.22637730068140
C         2.35403869570839    1.91235450080997    1.03521505140080
O         1.20172161937535    2.32911382668900    1.15770263731158
C         3.97458441793205   -0.55565992691836    1.92552749387427
C         3.79491913611616   -1.33868994724614    3.37162191645226
C         4.85066163416857   -2.34844131772458    2.90067112388272
C         5.22775855315306   -1.57546558674487    1.67388922576354
C         2.65231106000009   -0.78588752534454    1.10860645449645
N         2.63586494249688   -0.70129353740737   -0.34476266547582
C         2.15559200601744   -1.96821782077162   -0.89046516197897
H         1.69608816206698    1.44181754691893   -2.80492164695634
H         1.35032460238818   -0.13293905390294   -2.85446968698791
H         3.10380614075246    0.31277510334384   -3.02658933270049
H         1.02375722022240    0.63156923923688   -0.64574625150740
H         2.53293685923714    2.57808570496525   -0.93817804466295
H         4.87259033293746    2.22353883220879   -1.14495388741551
H         4.58401074559363    0.52812876026185   -0.94437065366225
H         5.13233997057088    2.65369365484878    1.16319161495765
H         6.02232959849153    1.20065774187597    0.72151923634458
H         4.94645630931684    1.19257105475950    2.94902634094684
H         2.79388632299470   -1.67871057702134    3.65025806691429
H         4.29818944703567   -0.72813313563387    4.13425874988322
H         4.38619623201314   -3.33022388189674    2.78944006863424
H         5.60356113410186   -2.54671577195117    3.67069319682545
H         5.18632488366013   -2.07762821461604    0.68176071804926
H         6.16290982002594   -1.01601203878322    1.68171160790778
H         1.89283573071834   -0.17550677739334    1.61799054411179
H         2.30605937382601   -1.81003235529652    1.28332641028269
H         2.82218963827430   -2.79109310644419   -0.59855349243378
H         2.06038045119202   -1.89154944118716   -1.97814131407917
H         1.15207021575035   -2.20960932633837   -0.53435162966264
