37
 energy: -49.576189327369 gnorm: 0.147743537082 xtb: 6.4.1 (79825abcba525fcdf90b791dcacef51065a7a4e7)
C         1.93195941022330    0.61484715697012   -2.35864304957000
C         1.96235626090347    0.47369235567848   -0.83028909023000
C         2.62136249727517    1.79813765369502   -0.35041669045919
C         4.14198955221690    2.00152302159100   -0.51837385307800
C         4.83241609040516    0.89290008335464    0.29444160889013
C         4.33396688440739    0.71240245162304    1.72114841104133
O         3.29313870623528    1.68393093449893    2.06694083903522
C         2.34880364083779    2.02202922344363    1.11283912879993
O         1.48757514855546    2.77237293109903    1.57305209649845
C         3.85395519329880   -0.77988091236839    1.91755376212995
C         3.69392852313013   -1.09811183580330    3.53301817221765
C         4.66856962069975   -2.27808810177965    3.41590522702107
C         5.00670338160619   -1.93688857543397    1.99677315660588
C         2.56722794645164   -0.99569335814096    1.04203701410199
N         2.78281857479366   -0.63180080019257   -0.35109303199694
C         2.89081967050863   -1.80004994264677   -1.22119655913187
H         1.65651278188736    1.58094999004778   -2.79313628642854
H         1.28192372224206   -0.14902275098520   -2.80698425241077
H         2.92828096870024    0.33535989797050   -2.70986199980410
H         0.92595661878280    0.41832210871454   -0.48492738106475
H         2.20246910318465    2.59295667197866   -0.98264631569119
H         4.38251785820292    3.04919883626714   -0.28335057327805
H         4.55465111074223    1.90698429729330   -1.52433426161453
H         5.87336653503314    1.24071508811883    0.38294107932267
H         4.84120037591105   -0.01248723608139   -0.31858096872310
H         5.15196202912574    0.78536938221274    2.44696895966833
H         2.69456783744173   -1.36423038414836    3.88767006717979
H         4.06541765047592   -0.23971451947060    4.10992842592843
H         4.19279576712466   -3.25540136424361    3.51835271202947
H         5.52578463985710   -2.22162927368512    4.09494809737025
H         4.95042731072589   -2.75684542962974    1.24663531006983
H         5.96354296616632   -1.43393885396794    1.85872625857437
H         1.84709927151265   -0.31998512596444    1.52543402933559
H         2.23945628112209   -2.03709455291622    1.12770619394982
H         3.34418913358530   -2.60600248937099   -0.62825036831446
H         3.46825212770756   -1.49211941049391   -2.09854098302148
H         1.88114691701412   -2.08591342758679   -1.52283490149953
