37
 energy: -49.586804109859 gnorm: 0.122339471346 xtb: 6.4.1 (79825abcba525fcdf90b791dcacef51065a7a4e7)
C         2.24028086818379    0.61431663173164   -2.50203815080328
C         2.08997011448543    0.47224485816476   -0.98087519931845
C         2.63427691452747    1.73305350711248   -0.25093430377094
C         4.11702850801679    2.08014565245287   -0.50164644016997
C         4.99781379443368    1.08013175879826    0.26685344237167
C         4.47752236278004    0.84494104942323    1.67770617541314
O         3.39983739053247    1.75667585124834    2.07025941162874
C         2.30907688371916    1.77608420049578    1.21805400032632
O         1.17601663046021    1.92186225388074    1.67789024560807
C         3.91399659631854   -0.61131720396017    1.91780297584187
C         3.62986419534917   -1.01887133259401    3.49570445647928
C         4.87446572177806   -1.91666256990461    3.52607926718536
C         5.02066669112679   -1.80897691235160    2.03889519602129
C         2.69248900119624   -0.96217012369192    0.99390203870759
N         2.73481186095935   -0.71831422604596   -0.44082840690474
C         2.34626044869209   -1.91033201632125   -1.19027607929214
H         1.52274117107215   -0.03488069170110   -3.01359412980763
H         3.27987021188570    0.48621555066405   -2.83354616536737
H         2.04675744053727    1.64854483541831   -2.79707242526220
H         1.00399149211943    0.51785900546106   -0.85825970767620
H         1.93851962459332    2.51471397056789   -0.58537707076610
H         4.28186850431209    3.09555174420426   -0.11114335516118
H         4.29207981277438    2.07097411185417   -1.57889125503765
H         6.04416329011807    1.42048693712611    0.22566691548298
H         5.05815135096850    0.07112252339728   -0.15011152219517
H         5.27343588445107    1.04529087943200    2.40409263671559
H         2.66934842582270   -1.49522696907362    3.70974553035105
H         3.77150032565029   -0.15719094407253    4.16287884816327
H         4.69836211544738   -2.95434097958040    3.81626626881383
H         5.72756387753479   -1.54949284661407    4.10617782505545
H         4.67988805709885   -2.70827269490632    1.47912734643298
H         5.99845543906649   -1.55421815386020    1.63074756946571
H         1.81047514749016   -0.51457565735833    1.47405860155442
H         2.52391170969854   -2.03289416260315    1.15017629159008
H         1.29065073146219   -2.10052193881534   -1.42735089181971
H         2.70428162410538   -2.75440200456372   -0.59248900620379
H         2.87274307323035   -1.90468821828654   -2.14679418174025
