37
 energy: -49.582262881333 gnorm: 0.146092097760 xtb: 6.4.1 (79825abcba525fcdf90b791dcacef51065a7a4e7)
C         2.40539483725098    0.46401043378171   -2.45696272176392
C         2.14155483233534    0.28532966908155   -0.95523834588453
C         2.55786285891395    1.64544504005595   -0.32635371805655
C         4.02342537407697    2.12745133935852   -0.36732078433525
C         4.92668489754506    1.20191424999608    0.46568938478220
C         4.33969409497930    0.93511018463912    1.84437742650383
O         3.18723978256956    1.81141119851552    2.06956380898641
C         2.20440414577603    1.95030268223011    1.10461173075539
O         1.14798467145609    2.46938288494117    1.46663355841714
C         3.86980352801314   -0.56662925580995    1.98536485875056
C         3.88191709894503   -1.13016756144487    3.54064057707040
C         4.77761003429207   -2.27433403503479    3.04606808455942
C         5.10225356520951   -1.61320072430586    1.74138547083798
C         2.59529345732119   -0.96894986207545    1.15920880415462
N         2.79039265186250   -0.82989293548788   -0.27686498424502
C         2.46673122572050   -2.04513573436435   -1.01981766239037
H         1.92160936688575    1.33733665208777   -2.90558599268520
H         2.03350621472762   -0.41584511897880   -2.99973940294413
H         3.48612914194355    0.52349384699069   -2.60729438744242
H         1.07555652277704    0.12163721049599   -0.77270841400301
H         1.97554400912884    2.37911212985997   -0.90042742463482
H         4.06991269176912    3.09681638812304    0.15122020953116
H         4.34158700686437    2.12149423039762   -1.41131368158783
H         5.96618948298693    1.55884469943596    0.53214336375408
H         5.05794678886949    0.27887698546392   -0.10560088775173
H         4.99962111427097    1.17229514406600    2.68669288220615
H         2.89412151858555   -1.47786097846872    3.85478705915218
H         4.31763357496049   -0.42336242438872    4.26053863659979
H         4.24990337644617   -3.22934551161362    3.00764640223757
H         5.67833738072998   -2.43450950502036    3.64784751062931
H         5.09135626310291   -2.12503398329334    0.75340216856118
H         6.06517619199249   -1.10473252633935    1.78378208368903
H         1.92106793606138   -0.20272735661777    1.56806406926843
H         2.24460788947629   -1.99641445785111    1.30282656789816
H         2.57508515508832   -2.95376547717804   -0.41208418376891
H         3.03329957947033   -2.05122900455821   -1.95627154250741
H         1.41180821601809   -1.99795517613745   -1.29740392335947
