37
 energy: -49.579198909491 gnorm: 0.153362603848 xtb: 6.4.1 (79825abcba525fcdf90b791dcacef51065a7a4e7)
C         2.07960792774306    0.39697658045407   -2.34885519453044
C         2.09892599893702    0.45393562561427   -0.81487443702863
C         2.84701990106615    1.72159464559672   -0.31276066721006
C         4.35580571659291    1.40300923402114   -0.37561411800250
C         5.12041499357651    1.55138537994676    0.95094525993593
C         4.18087403250315    1.01622041001776    2.02210564333452
O         2.98323130562819    1.84136471856256    2.19973469081437
C         2.31139835215889    2.14602748288895    1.02832087084301
O         1.20053448322644    2.64307840540749    1.21659732085712
C         3.86788095178751   -0.52483080890169    1.87014380034995
C         3.76245801197763   -1.33004826402159    3.31136397350145
C         4.77289279193553   -2.33875434621564    2.74787635078333
C         5.17436229061225   -1.46909346824754    1.59583485995771
C         2.55472301378121   -0.94687104419006    1.11763474081477
N         2.70065733635954   -0.77856262900998   -0.32114387803408
C         2.42402217923253   -2.02454966508706   -1.03145349860618
H         1.40039554740725    1.19429489768158   -2.66660345589349
H         1.76840378490667   -0.50654545129996   -2.89093764541628
H         3.05542063750106    0.73127967817967   -2.70962592736710
H         1.04629876018002    0.48747014387381   -0.51938139810404
H         2.61594890824210    2.48468505874966   -1.06855327999228
H         4.75408344866609    2.20801095831788   -1.01127244417573
H         4.57528833848875    0.40899005017221   -0.76923413963826
H         5.43053284896448    2.56582491762514    1.24611402219639
H         5.95866530019266    0.85497026958014    0.86182469915115
H         4.77719711541512    1.11867903363796    2.93597473672466
H         2.75943140257359   -1.68573105446488    3.56185590624892
H         4.05992853260502   -0.69101170689599    4.15446487898000
H         4.24834387478889   -3.25914281055656    2.48381012522761
H         5.55131854426778   -2.55544661041937    3.48693130281688
H         5.19600350462577   -1.91107880046520    0.57486294020925
H         6.14138666596564   -0.98556142453855    1.73228257269178
H         1.78811315988277   -0.27820203412897    1.53480460242368
H         2.30711337023638   -1.99283776524554    1.32723677395134
H         2.73521085669076   -2.85725212751806   -0.38611886999296
H         3.03055035359020   -2.04381057395592   -1.94235156521065
H         1.35644013226791   -2.23645055309745   -1.11810959285051
