37
 energy: -49.580421000846 gnorm: 0.140710983456 xtb: 6.4.1 (79825abcba525fcdf90b791dcacef51065a7a4e7)
C         1.69923467553413    0.46713324465595   -2.29511802099886
C         1.89408136839969    0.48494428599033   -0.77247820747733
C         2.83896379196180    1.68029809005419   -0.46095195117197
C         4.34584987979420    1.35373897865940   -0.52829668389152
C         5.00988856625893    1.45152092840885    0.85586150457885
C         4.21596928475798    0.90254946009062    2.03265620879856
O         2.95335398722251    1.64489431767479    2.07125701865851
C         2.39856715817869    2.13918664477353    0.90323479404711
O         1.52542784341780    2.98972779838620    1.07854497179982
C         3.82996609024621   -0.62933712901369    2.01779383991083
C         3.81629989178534   -1.43065264729369    3.46496741462810
C         4.88560836915989   -2.37169335044803    2.89312261429006
C         5.13671498289215   -1.54767149411393    1.66730825502185
C         2.52416627412440   -0.91905290779693    1.19334059291872
N         2.61291915518252   -0.66480800654987   -0.23746018301884
C         2.81655975309241   -1.86471914475165   -1.04510750179018
H         0.96407068368851    1.24040886021401   -2.53922585608492
H         1.34273242617449   -0.50134160745193   -2.67196821830924
H         2.67030359128699    0.58331729890448   -2.78261258611732
H         0.94260640197872    0.68971540735497   -0.27324983005479
H         2.53040788769245    2.54620337097099   -1.06255361126154
H         4.84846347340801    2.00503216968787   -1.25898893973283
H         4.34814772076656    0.33017957061748   -0.90711634606405
H         5.14214283930548    2.53576498468710    0.99481791544967
H         5.98829294285688    0.96349539081976    0.84337192666764
H         4.70250938206605    1.13515623119103    2.98681998242387
H         2.83353994068815   -1.89525515639098    3.58178442956061
H         4.10941172821675   -0.78594053160961    4.30526932191623
H         4.41307993152507   -3.33337366607217    2.68363440990445
H         5.82150767108660   -2.58286426707425    3.42095189526198
H         4.95930448987974   -2.10406163510177    0.72012371067999
H         6.09196858972512   -1.04396809749828    1.81335888163721
H         1.69212556370586   -0.33595520763011    1.61351306306921
H         2.24078571685742   -1.94713282015217    1.44241300423854
H         3.38757606328006   -2.62514966141760   -0.49522173279810
H         3.23980938246370   -1.55709524837307   -2.00646590420696
H         1.83041905002101   -2.24784710279779   -1.31507447653681
