37
 energy: -49.526059790009 gnorm: 0.133229443146 xtb: 6.4.1 (79825abcba525fcdf90b791dcacef51065a7a4e7)
C         0.63513079803738    0.30551105525184   -0.82802241982625
C         2.06878019958834    0.29562573384879   -0.27914507541832
C         2.94488635831410    1.57599393865206   -0.38785423639026
C         4.44859566992025    1.40808169013523   -0.69206784205992
C         5.33268836354781    1.13300162392691    0.53639212091674
C         4.55130346036230    0.50706340922537    1.68276143822424
O         3.63013632419217    1.60519477645557    1.98660704201377
C         2.81722609899936    2.13984011933856    1.00186301447153
O         1.94082386647889    2.90138106282513    1.41235158008350
C         3.81840314208386   -0.89244823721037    1.67177896769243
C         2.86207630259921   -0.67461401180393    3.00391719279678
C         3.86567845281294   -1.53473448058568    3.78427623972852
C         4.42360488312898   -2.14310607330236    2.53396046824922
C         3.70128952469544   -1.39930335878467    0.18916159928994
N         2.72697489137007   -0.90710259916702   -0.77424804486589
C         3.10373201319821   -1.07451894453285   -2.17552476707387
H         0.01200243364755    1.14030099668464   -0.49209572010755
H         0.09312625055756   -0.63900828421528   -0.68253084078589
H         0.60955250390644    0.58370325757438   -1.88446901765128
H         1.81731307473045    0.08559180267940    0.76446162445342
H         2.58638264300753    2.25900506816348   -1.17009095045414
H         4.77538477363342    2.30024698031113   -1.24701332764717
H         4.73692767897540    0.67608949679353   -1.44853043340588
H         5.92502353972533    2.00936621815072    0.84218534187081
H         6.11295053769320    0.51953051679733    0.07765005094634
H         5.27210414442081    0.48524628446993    2.50812574020569
H         1.89259047395567   -1.15265772554459    2.83993451030372
H         2.75210497395712    0.30548132890689    3.48868007658959
H         3.54036560473570   -2.31057663055832    4.48014834078835
H         4.64232786711579   -1.01796607676991    4.35774857980569
H         3.96313098626651   -3.14713938701315    2.39948374268403
H         5.51049478411650   -2.21849166440786    2.51062022304317
H         3.43775413687990   -2.45807566316698    0.32477135348351
H         4.68483269599686   -1.34737447058706   -0.28962464980053
H         3.11382520618158   -2.15159882409281   -2.39113010998582
H         4.03003916622134   -0.59129477564509   -2.50176425605096
H         2.34070973480313   -0.69074202841272   -2.85571225334263
