37
 energy: -49.570499845741 gnorm: 0.161249971470 xtb: 6.4.1 (79825abcba525fcdf90b791dcacef51065a7a4e7)
C         2.40563073963305    0.41923699831102   -2.45584064246525
C         2.13066896780515    0.40847961318785   -0.94554439242773
C         2.89937368886325    1.62229258651210   -0.35016787648950
C         4.43742197782333    1.49682462196625   -0.32677840138863
C         4.98050135358508    1.69863994484346    1.09826122752932
C         4.12229689544349    0.96957895724698    2.12221360791843
O         2.82295205263389    1.64372110406366    2.18544848417408
C         2.30003749231927    2.03900489735437    0.96614527445981
O         1.31244925455780    2.77275631575383    1.01910270434815
C         3.90608518708147   -0.58115839653252    1.91159059498016
C         3.91580654266630   -1.44811753449055    3.32045256913831
C         4.90788331164935   -2.35250620594267    2.57624189628222
C         5.26519729850402   -1.38596913454538    1.48866651617253
C         2.56479601714694   -0.93223600394299    1.17236163291218
N         2.61681806658134   -0.79152803846606   -0.27581080465182
C         1.95080397911438   -1.99585256799584   -0.76527798693507
H         1.74303749806569    1.10385572882630   -2.99461452343010
H         2.20163726831964   -0.54930638310201   -2.93266749184720
H         3.39823148284249    0.78292657179242   -2.73260439877083
H         1.05365856864057    0.53915261960858   -0.80612432908948
H         2.52875177131246    2.51271618042069   -0.87619875014652
H         4.89678600457392    2.09783956066101   -1.12582792213359
H         4.66989156824372    0.48007268761540   -0.64827003367296
H         5.03154944762436    2.75431823378220    1.40700496062733
H         6.01077868234486    1.35964631322187    1.23686853451684
H         4.47140854090822    1.16981215052519    3.14166611773046
H         2.94754231013090   -1.86973418288388    3.60333524778511
H         4.40815726282221   -0.76974245785478    4.03113786826168
H         4.36089394820013   -3.18570389210684    2.13061680998602
H         5.75122027495999   -2.64935249496613    3.20851514462167
H         5.14894622651285   -1.75340730767647    0.44479012719753
H         6.13679879335270   -0.77563331233118    1.72395012792991
H         1.79400530822031   -0.26026417098219    1.57631105342743
H         2.34980825139271   -1.96729430151501    1.45823660990427
H         2.37008257063449   -2.83589949683481   -0.19500157342667
H         2.16773215953209   -2.38552096001806   -1.76481958256694
H         0.89320022047928   -2.13948190152582   -0.53508764628867
