37
 energy: -49.582997566197 gnorm: 0.131251602241 xtb: 6.4.1 (79825abcba525fcdf90b791dcacef51065a7a4e7)
C         1.97292116630782    0.51349210601104   -2.38172223492082
C         2.09469281394500    0.38133395048578   -0.85711724939689
C         2.62450530868942    1.71314410961544   -0.25354245800089
C         4.12075556396693    1.94177042882171   -0.55495092143045
C         5.00695604607642    1.10963124811322    0.38770262463274
C         4.43005852861418    0.88353988980649    1.77788077463022
O         3.37012059544249    1.84802396389284    2.08294695679445
C         2.34233899152459    2.06739389579518    1.18187477852531
O         1.38042395506452    2.74138639454310    1.55198254177161
C         3.90410688626775   -0.59661051583336    1.94647971578019
C         3.66254939956016   -1.16018307868151    3.48291737364995
C         4.41463556447947   -2.41815365047230    3.02699945559803
C         5.05276459284073   -1.75588072329181    1.84425970614630
C         2.61930939509437   -0.87478967025650    1.08585006437111
N         2.87391531327084   -0.73731152200087   -0.34102906604665
C         2.87640226195095   -2.03826451659925   -1.00515674650583
H         1.36855854764755    1.41363910296058   -2.53169263635799
H         1.44812237817167   -0.36333001505612   -2.78523514383180
H         2.94162201725983    0.69303005419629   -2.85448994750899
H         1.06908852969598    0.33418643433562   -0.47978744946091
H         1.92017357134519    2.42163830435237   -0.71057205392642
H         4.31019521841472    3.02153391709895   -0.46041065850509
H         4.25562879363626    1.50249072297564   -1.54491357111405
H         5.95100747525806    1.67583928808418    0.36402522005372
H         5.15291913415265    0.10622865800344   -0.02153823173144
H         5.11310901068545    1.17211098692523    2.58498948680264
H         2.59225264244241   -1.25727781648390    3.68380615045863
H         4.09653503376929   -0.55060362596648    4.28774339609978
H         3.74165888743073   -3.23149251803844    2.74846805152192
H         5.06442253397282   -2.76065567178701    3.83914086709205
H         5.06988277611651   -2.27429312970505    0.85980118109869
H         6.06252363347965   -1.41449344066051    2.07097266748383
H         1.78990586994036   -0.19936428731348    1.34027087798862
H         2.27724229755879   -1.88100564289551    1.35006485366470
H         3.35476138724185   -2.79482329838057   -0.36838369359291
H         3.49915806918248   -1.81885030747524   -1.87809162816098
H         1.88990200263474   -2.44116554306926   -1.24312878681026
