37
 energy: -49.575267631784 gnorm: 0.133860870170 xtb: 6.4.1 (79825abcba525fcdf90b791dcacef51065a7a4e7)
C         1.79868852695108    0.53186375086519   -2.20038523994268
C         1.95166018759935    0.33810038915973   -0.68520540861445
C         2.64192056370769    1.65782191537067   -0.23732394799249
C         4.14579178407616    1.69426739623242   -0.58217885999702
C         5.08107680146998    1.29273176787804    0.57125672611147
C         4.34204290517232    0.92286348689120    1.84936064473224
O         3.25857902279175    1.86304752462764    2.14756066711280
C         2.34402433256899    2.15742828507298    1.15090681240313
O         1.34828762352358    2.83418899393095    1.40980737414989
C         3.90579214496354   -0.59510490541720    1.88614512697180
C         3.62136111282520   -1.14630152308701    3.41973111704759
C         4.56513433212867   -2.31680485354057    3.11118814169741
C         5.16298151183768   -1.64027554224735    1.91554010280563
C         2.71323123440602   -1.14186386365189    1.02149219982745
N         2.85751919787665   -0.76143324192002   -0.37642123812259
C         2.81774982403937   -1.93793977990799   -1.24117624224240
H         1.40053261964431    1.51418989460020   -2.47336350475500
H         1.12469701968374   -0.17893028406176   -2.69794001621163
H         2.76007700078152    0.45218517975175   -2.71371559752614
H         1.03175930197825    0.33434599457086   -0.09340048163142
H         2.03777004310514    2.38057025976735   -0.80262054133514
H         4.39590257060052    2.71431257870695   -0.91030511681090
H         4.24285348630143    1.02824143850695   -1.44134818161643
H         5.78105545107629    2.13874633263535    0.65295427613087
H         5.66208777905982    0.43747141633861    0.21550960558797
H         5.08344300584178    1.06657555055490    2.64367067359082
H         2.56125989604114   -1.32968621395901    3.61434431571771
H         4.01018541125090   -0.42002456492973    4.14706392284257
H         3.94005924477922   -3.16640863677692    2.82931581448877
H         5.23459111153393   -2.71824764101169    3.87915670731949
H         5.39576835269303   -2.24512824863971    1.01101452586574
H         6.07672706841036   -1.05829140509253    2.03352688540495
H         1.72104707854348   -0.81496857539270    1.36434735773746
H         2.73478708541278   -2.23649827710367    1.04600280871900
H         3.58698829005293   -2.65955031319840   -0.93419255293628
H         3.03016159456910   -1.88572982265411   -2.31362113616874
H         1.88072626569787   -2.49787897022891   -1.26562297189962
