37
 energy: -49.577750656243 gnorm: 0.138482554711 xtb: 6.4.1 (79825abcba525fcdf90b791dcacef51065a7a4e7)
C         1.81773987341992    0.56242906945945   -2.25060827423887
C         1.97823188897729    0.51614194809584   -0.72456295895827
C         2.88381546943233    1.73312746539123   -0.38165371131133
C         4.39215330317959    1.42454020561173   -0.48923017733399
C         5.12291900450425    1.42679029634727    0.86442375862903
C         4.24484856148730    0.86659752029233    1.97424338437828
O         2.99957935664090    1.63330389225286    2.06495840333778
C         2.29516318191535    2.07905557691548    0.95974688789838
O         1.27020805088987    2.75724004611564    1.03758611311523
C         3.84169928577916   -0.66081572383848    1.95487073977452
C         3.84204373027998   -1.33133777548778    3.46715534999521
C         5.00917924218366   -2.24231701121841    3.06231436442723
C         5.07489857738428   -1.69580060153956    1.66886965036817
C         2.54304836630587   -0.93030825289014    1.11246281326326
N         2.68725846214306   -0.69029434102247   -0.31627971246513
C         2.54637984291466   -1.89374144534690   -1.13201173343618
H         1.17624387723296    1.36701942229836   -2.62360580760924
H         1.40487100197435   -0.39952809821361   -2.58412165441944
H         2.81473437671721    0.66723401727813   -2.68551333453107
H         0.96484233606018    0.60910661190937   -0.32348443158833
H         2.61776337369805    2.53407789849973   -1.08494449977706
H         4.70287882138173    2.31175101232167   -1.06108772667370
H         4.57122557505253    0.53746776601096   -1.09932776613306
H         5.52085923988749    2.40985273689253    1.16042552048003
H         5.97855693691972    0.74656391463035    0.83656999335299
H         4.62455996147460    1.08521225791155    2.97887392537111
H         2.87314147959491   -1.71988399951562    3.79208470094387
H         4.00141635087667   -0.55914980053679    4.23266280107335
H         4.78560671669799   -3.31010916093491    3.01950420851022
H         5.84107726719209   -2.02052374534063    3.73896629126590
H         4.72682017606801   -2.34094882906200    0.83171481046146
H         6.02798948869722   -1.29827264773094    1.32080846895004
H         1.67758234135632   -0.36119573003758    1.48113485807492
H         2.26594617270062   -1.98505073285987    1.21257570451459
H         3.05853427869888   -2.72539692649553   -0.62928361927260
H         3.01322660917284   -1.75831476298007   -2.11267294103803
H         1.48572903132476   -2.06982127965203   -1.32216545807879
