37
 energy: -49.585946459577 gnorm: 0.129882458827 xtb: 6.4.1 (79825abcba525fcdf90b791dcacef51065a7a4e7)
C         2.31887296294708    0.52600616983024   -2.45142803187124
C         2.19127844519066    0.41055714234720   -0.92594266309687
C         2.67057781070794    1.72369727093076   -0.24428499826555
C         4.16522849267179    2.09022471431593   -0.36072725870245
C         4.98596874236560    1.04658073511565    0.41618669722564
C         4.33688431319360    0.84056321208394    1.77735146032824
O         3.25377988817427    1.76674020084089    2.11771053311985
C         2.23624308070749    1.89003839435393    1.18722375711186
O         1.06899836493154    2.10111837977961    1.51814847209127
C         3.85141448542815   -0.66008183687668    1.86834284942350
C         3.67060322818293   -1.04541757190381    3.46691358457894
C         4.99596103363530   -1.80649349783116    3.32487545632497
C         5.14866608738450   -1.65518137994047    1.84215052925451
C         2.61216243924503   -1.07293228056516    0.99508430643577
N         2.78887214778640   -0.82233241757509   -0.42818019308061
C         2.29719774668687   -2.02074923737651   -1.10316453764370
H         2.16468586616788    1.58678898401650   -2.67273340338888
H         1.53941198874983   -0.00844766932555   -3.01165400623967
H         3.27486660611639    0.28851002162116   -2.92449911078595
H         1.11495198888607    0.41891133556417   -0.73122142523688
H         2.04509822865594    2.46329566725838   -0.76264082625339
H         4.47288297083016    3.08541887153997   -0.00625338987937
H         4.41671126863394    2.10565496567033   -1.42266030570528
H         6.02195809832698    1.41055185885278    0.49765040237942
H         4.98359659244648    0.09352355331085   -0.11979505129596
H         5.07072840228646    1.07815092944271    2.55599170815581
H         2.79260479088300   -1.67813437879747    3.62217795055508
H         3.65099391043906   -0.22745031934532    4.20054878986518
H         4.85728022516940   -2.81194656897322    3.72715548188924
H         5.84652670538106   -1.30023475509183    3.79321778407666
H         4.89600086846446   -2.55586577552268    1.23954705408181
H         6.15141708538259   -1.28608432603361    1.62810577469260
H         1.74234446899937   -0.54840216058486    1.41594586005175
H         2.44382173356868   -2.14878821735962    1.11121070027118
H         1.20836088251079   -2.05566873673308   -0.96208485632892
H         2.84499149882893   -2.90676384272249   -0.76718415248337
H         2.36008001340849   -1.96836999870365   -2.19194593327945
