37
 energy: -49.573496070047 gnorm: 0.133393341559 xtb: 6.4.1 (79825abcba525fcdf90b791dcacef51065a7a4e7)
C         1.74234131342267    0.47396442197131   -2.34068396780564
C         2.02629773619875    0.43959600652922   -0.83240614035464
C         2.62603990250865    1.78414127050696   -0.33117819731717
C         4.14439438117855    1.95004364500988   -0.55244262774846
C         4.95404806198173    0.93715909878097    0.27516140365289
C         4.41086257339019    0.82052170657480    1.69215419749441
O         3.36903500665038    1.80264973660514    2.00325414172858
C         2.32388604007868    2.02598621458196    1.12338271802629
O         1.22151879903137    2.30248431539444    1.59757829710591
C         3.84573507757759   -0.63593013932534    1.92726028671185
C         3.59478875374915   -1.10264007200732    3.49436350875771
C         4.87557314400051   -1.94764554009734    3.45509765499705
C         4.93580184765090   -1.85428447447141    1.96099470953887
C         2.56035628028513   -1.01205695244163    1.10561463817209
N         2.70541763719908   -0.74318668133131   -0.31789314045994
C         3.21208391393301   -1.75804506436922   -1.23816601164508
H         1.30681253888494    1.45783365736944   -2.54149711527925
H         0.96948178492231   -0.26504203633217   -2.59289630980875
H         2.62080704057327    0.42308074454925   -2.98862943665473
H         0.99578642632462    0.48203988321520   -0.46811263357287
H         2.05465864386761    2.60499211149184   -0.78576660175483
H         4.38392448085678    2.99301867683325   -0.29642925342688
H         4.25197249093796    1.65256750640330   -1.59700875301257
H         5.97411065067656    1.32184313387705    0.12064353876840
H         4.85559930526381   -0.08265928147346   -0.10677887387673
H         5.10642166846976    1.07354970591771    2.50050442211456
H         2.72704114951309   -1.76653775744266    3.45470499261377
H         3.49182537917982   -0.37626120809597    4.31256143792213
H         4.92907481799085   -2.85889404716445    4.05406442392891
H         5.72696413860508   -1.37327170752221    3.83500881074993
H         4.41778239305622   -2.73119846373370    1.51279749426864
H         5.90911137396327   -1.69208155303969    1.49848402097806
H         1.65553947751573   -0.55072892973908    1.52671153265203
H         2.37749947687500   -2.08576197620840    1.21967967868329
H         2.35347786803240   -2.34659900732524   -1.58900567397100
H         4.01379900931111   -2.40546832564847   -0.86927753831459
H         3.68595610074440   -1.22758397869709   -2.06653722883946
