37
 energy: -49.574481702942 gnorm: 0.151130454669 xtb: 6.4.1 (79825abcba525fcdf90b791dcacef51065a7a4e7)
C         2.34918983893967    0.60212142438478   -2.43576659823522
C         2.18872931113529    0.35928438851086   -0.92845207622082
C         2.56888124204462    1.69481154527425   -0.22804233011183
C         4.06652819532987    1.98433379553489   -0.46280250212740
C         4.99228114800856    1.16859234787155    0.45586499990949
C         4.41612921699180    0.89206369261256    1.83720645121339
O         3.22755392273655    1.68108503365117    2.17111876041904
C         2.23689868429996    1.89005053940909    1.22701872760716
O         1.17447913712196    2.39138187241682    1.59642064275199
C         3.87239184223175   -0.59125593689442    1.84012747303047
C         3.61913844301776   -1.10133902459106    3.39327998203031
C         4.90513319217876   -1.93401420213194    3.29918289774279
C         5.08996402286971   -1.68269936458807    1.83379359209382
C         2.63339461363768   -1.06327532900069    0.99700517609164
N         2.81844109339380   -0.85824486816115   -0.43248031975412
C         2.34708160381466   -2.06699742953100   -1.10351529878804
H         2.69193658956767    1.63440693746668   -2.55791894664279
H         1.41238007795545    0.41787250546382   -2.97935952911811
H         3.10948004557717   -0.03142599702835   -2.89912497869226
H         1.11799491794686    0.19838980711810   -0.77319228917941
H         1.95264781718894    2.42947349653341   -0.76418731461808
H         4.21702094981404    3.04097283419832   -0.19525753673120
H         4.44412601547481    1.96350461044958   -1.48660400112078
H         5.90749282819668    1.76890862144689    0.57583675447093
H         5.13169399632920    0.22318267345498   -0.07551496541972
H         5.08857148656007    1.09202952058531    2.67928173131413
H         2.65730067717595   -1.62033868681045    3.42202551296614
H         3.68036871752293   -0.34949045268108    4.19243588044120
H         4.88397349996807   -2.98268787045564    3.60222294229502
H         5.64028850759304   -1.26185974895917    3.75400095663216
H         4.93832437355957   -2.50934174224288    1.10449883498507
H         6.07350594470824   -1.32344557319639    1.53190061713267
H         1.75609321035776   -0.51133119169199    1.36380147882247
H         2.52489768362652   -2.13677731245178    1.18438673688462
H         3.04228020647334   -2.84702055360875   -0.76447046722711
H         2.46595814364610   -2.16888728720027   -2.18678328036007
H         1.32890697614624   -2.33841907191963   -0.81751982012518
