37
 energy: -49.560246069632 gnorm: 0.152673878762 xtb: 6.4.1 (79825abcba525fcdf90b791dcacef51065a7a4e7)
C         1.07454444164127    0.22789446280201   -1.44530919526466
C         2.17594060856973    0.37986654719338   -0.38675101053207
C         2.79632327086249    1.79768033092361   -0.23296054586947
C         4.27273978034432    1.86740503110399   -0.67704905904530
C         5.06742412155256    0.91300190225744    0.23069211732954
C         4.45702236633452    0.48948801088375    1.55906290561652
O         3.49962009157700    1.47974734406373    2.05859331396700
C         2.72087032443672    2.24060079140489    1.20358450092596
O         1.99969848833196    3.13197479341329    1.65290590556750
C         3.73908117471203   -0.90925526959123    1.71389690689660
C         2.88790625632130   -0.99581725948039    3.12974046271238
C         4.00497009265415   -1.86426226131159    3.72468278199798
C         4.85573336326672   -1.81521793267982    2.49241499126721
C         3.08666499726371   -1.62446295522319    0.47631754712643
N         3.15841926308466   -0.67106130785915   -0.62167383215268
C         3.29952621664669   -1.07570300494030   -2.01806359258678
H         0.35582395233555    1.02665444635138   -1.23690272714744
H         0.56414750978491   -0.73632338491340   -1.31556953519586
H         1.56422383245692    0.27823815332856   -2.42091369035744
H         1.70073023878754    0.24807445255482    0.58960484278001
H         2.26284352431087    2.49588163671020   -0.89238267055906
H         4.61597211816104    2.91264585644421   -0.65761730480094
H         4.27090861555704    1.49681462918073   -1.70361755614770
H         6.05401040881693    1.32561490379638    0.49295774029705
H         5.05070614808735   -0.04366099880576   -0.29856836388549
H         5.16636889087274    0.57182899444683    2.39050933546877
H         1.94673008357679   -1.53220746171632    2.98212003324839
H         2.62304457030527    0.00473399065566    3.49909265798292
H         3.70559096141088   -2.87378072412373    4.01319980121518
H         4.39399679807621   -1.34195200244662    4.60499785383675
H         4.93513727293041   -2.83115336439494    2.04545497144163
H         5.84190239652171   -1.37675828361653    2.64334919431932
H         2.03962018054849   -1.87991324407497    0.69376154109598
H         3.62879498642178   -2.55460154002466    0.27575034543605
H         2.51021048524990   -1.75611927533955   -2.36548686809499
H         4.19756584287375   -1.69837812544183   -1.95655569297931
H         3.60069801240032   -0.29754892751131   -2.72227553904363
