37
 energy: -49.572876281683 gnorm: 0.133195284696 xtb: 6.4.1 (79825abcba525fcdf90b791dcacef51065a7a4e7)
C         2.92081142360915    0.15547769790131   -2.28965967931380
C         2.33058491321439    0.32225166224809   -0.88234535661791
C         3.01962387975995    1.57454629687884   -0.26939710562574
C         4.54992860888100    1.65567485048279   -0.08645600136274
C         4.97493675717381    1.77268229108702    1.38734179500398
C         3.97759570285040    1.06738811658955    2.29530340913472
O         2.70060807034839    1.78390658506394    2.24365838222163
C         2.27511613471842    2.04287798170432    0.95203936000576
O         1.19774948796424    2.62428151109389    0.81870806484932
C         3.82331260449801   -0.45307211971074    1.89493687354172
C         4.17016111179095   -1.52484367290069    3.10638501460618
C         4.75425714292610   -2.44320972978975    2.02406328828642
C         5.06688140352968   -1.24224144987545    1.18464166323066
C         2.40301065864669   -0.78301997087491    1.30957506954727
N         2.50298032869652   -0.91832797155899   -0.13659445215029
C         1.65223015635537   -2.00136482888423   -0.62322139306300
H         2.96194614680581    1.10706268251410   -2.82892201232910
H         2.29830902579391   -0.54023982440159   -2.86890174062096
H         3.89837660363620   -0.32574343752973   -2.20649077580629
H         1.26150047469061    0.55306201458391   -0.89815214547506
H         2.75114914261474    2.27573483899765   -1.07138165644951
H         4.86956507597179    2.54071259905489   -0.65676744496184
H         5.08449407551005    0.82039795213193   -0.54223636931862
H         5.10540069921420    2.83917742568582    1.62807516101562
H         6.03339791119860    1.50674154247821    1.45468832880648
H         4.27101517791458    1.12578923972856    3.34969898737148
H         3.36930802178696   -1.98246973842693    3.69335311350210
H         4.89948429425315   -1.00501384501565    3.74320541300313
H         4.06505340562321   -3.08116129751720    1.46727475546223
H         5.53775018115346   -3.16828739803212    2.26800067018724
H         4.81863270645566   -1.39505420984235    0.11075903898043
H         6.04584908904626   -0.81415283046459    1.39893064906587
H         1.53778911133483   -0.12246748775209    1.46417680720742
H         2.08547238567227   -1.74817285098869    1.71815713252472
H         1.69682253974913   -2.89349726409934    0.01615314824976
H         2.08735352722253   -2.35506231542615   -1.56319396698335
H         0.60601586461641   -1.75647268451755   -0.81714454074107
