37
 energy: -49.566479854657 gnorm: 0.143741959034 xtb: 6.4.1 (79825abcba525fcdf90b791dcacef51065a7a4e7)
C         1.00097343518040    0.44121277595529   -1.36899662514046
C         2.17651371378569    0.35633333818302   -0.38532238749035
C         2.84491464436910    1.75153059986696   -0.22598972061921
C         4.33621016432859    1.77736248386385   -0.62254014788461
C         5.16859789212259    0.86990790096710    0.29944653097410
C         4.48949853181187    0.54579236094825    1.62243423136658
O         3.63943018590657    1.64320680154518    2.09129308729223
C         2.68471853918787    2.13849263279040    1.21973880569777
O         1.83603766823740    2.92643805467656    1.63855733515879
C         3.84771282880113   -0.89607779433676    1.69326808830120
C         2.87540734499753   -0.81801370064364    3.02935668755271
C         3.81187413218668   -1.82178303971684    3.71598742736546
C         4.78292015104818   -1.90422684215876    2.57802431638757
C         3.25821350239261   -1.53355963242649    0.38373420546073
N         3.11392507952359   -0.68410582791262   -0.78985750584864
C         3.23493202695552   -1.36096316555339   -2.07856689361313
H         0.24900639143230    0.97013940132535   -0.77503357547755
H         0.64455252833054   -0.49000362701752   -1.83035723209454
H         1.22172393018941    1.24481699424083   -2.07583041392368
H         1.78634558070158    0.05582361057282    0.59136975251993
H         2.38909696450348    2.52301454262630   -0.86157293446398
H         4.66481676890743    2.82654598385062   -0.57842547039325
H         4.48299203461591    1.48878175677957   -1.66482596306719
H         6.11181613658876    1.41897035329361    0.44523754126570
H         5.40430054207434   -0.08729544537039   -0.17363491802957
H         5.31544909774775    0.54659044879240    2.34289291832771
H         1.94377237947917   -1.28367489155387    2.69688897312589
H         2.63002906693303    0.15534883924254    3.47660429581350
H         3.40372726415707   -2.80900108486761    3.94140731753707
H         4.22121165022638   -1.41089824609669    4.64481512536234
H         4.94093114360827   -2.91620167687285    2.14311916708283
H         5.73807353454320   -1.45478318752553    2.84865278565573
H         2.25183738411870   -1.89614552841551    0.63785654227735
H         3.93049992734482   -2.37885828635166    0.20265116900162
H         2.81340681860682   -2.36873705828660   -1.96282218463670
H         4.29754190657885   -1.39744650448182   -2.33839741445262
H         2.61768174580112   -0.82905598781752   -2.80535402197528
