37
 energy: -49.568948650332 gnorm: 0.151456415304 xtb: 6.4.1 (79825abcba525fcdf90b791dcacef51065a7a4e7)
C         1.92408284622982    0.50599460788951   -2.36371835161600
C         1.97037966927543    0.35409271241714   -0.83679435625867
C         2.56499487997392    1.69003687741766   -0.30725868312223
C         4.05709795798737    1.93465494805697   -0.61656799801844
C         5.00906568439415    1.23056937182066    0.36548268082285
C         4.31559793983244    0.78481856303539    1.64490911605784
O         3.29261049785576    1.72790380482927    2.10409343017203
C         2.32107565035636    1.97725443452254    1.14997940909360
O         1.24955211661827    2.39378942024235    1.59141128684008
C         3.84466615956444   -0.70813196665949    1.85755412281232
C         3.68187501776700   -1.04006590822973    3.46998199243005
C         4.74113721565899   -2.14292733296475    3.33714758794192
C         5.09567473298117   -1.75838368377247    1.93318294286010
C         2.48389664812266   -0.99616870640501    1.12672392402680
N         2.71139893638625   -0.77812268758152   -0.29468632030388
C         3.00276695102764   -1.89428164933190   -1.19070210326672
H         1.03666597338426    1.10513756805267   -2.59071817103406
H         1.64574260196011   -0.48567527680824   -2.74604153540809
H         2.80668876984620    0.98063582648051   -2.79943272822138
H         0.96099366542504    0.29184721799211   -0.41998481001499
H         1.96921207207657    2.48777749586305   -0.77156032345817
H         4.21260134675669    3.02218787947178   -0.67825465498237
H         4.33009818729319    1.72107266323990   -1.65147715101688
H         5.93019644281580    1.78920461202181    0.59314480211201
H         5.40002082574117    0.33464364247801   -0.12448794528095
H         5.07892624981696    0.90474404245176    2.42221439047208
H         2.63062693648977   -1.28650025555748    3.64163985773561
H         4.02352311583183   -0.16214494790080    4.03585029405902
H         4.32903585440681   -3.13372986696613    3.53834467564623
H         5.60432160740207   -1.93625757274149    3.97847802343763
H         5.15254008286637   -2.48645167375730    1.09360783205184
H         6.08331139383206   -1.30077749337780    1.98541087454281
H         1.79213577991574   -0.33515358097014    1.66835618001013
H         2.19575653875491   -2.02668560550068    1.35974779317210
H         2.19415851591280   -2.34287491028647   -1.78366503378869
H         3.56610553239508   -2.64907888095144   -0.63310594878282
H         3.75793461539206   -1.63844773566288   -1.93663339568307
