37
 energy: -49.577273460498 gnorm: 0.139767406767 xtb: 6.4.1 (79825abcba525fcdf90b791dcacef51065a7a4e7)
C         1.94458988962998    0.61849308285662   -2.36598452015662
C         2.02653801645471    0.37416618464668   -0.85260969692481
C         2.67007322199340    1.67043835523474   -0.28316873442452
C         4.15893679848552    1.95661484259149   -0.57173435211573
C         5.11997077519757    1.21178804592456    0.37062934246853
C         4.45491277669469    0.88912148157851    1.70108319472170
O         3.34277971134820    1.75550796947400    2.10020448455999
C         2.33251422695481    1.90231253765175    1.16521714752320
O         1.19075823639302    2.19068771686367    1.52543817302729
C         3.99041942597499   -0.61484187145155    1.83612424856217
C         3.67248188172366   -0.93612296676877    3.42744411622091
C         4.57443804393948   -2.17703000664857    3.37636081905824
C         5.09014340587282   -1.81119749668006    2.01808914318428
C         2.72087072474838   -1.00198679223308    0.99521015219541
N         2.86717792801920   -0.73893748054874   -0.42925737137848
C         2.61211404647503   -1.97030923891999   -1.17237006700555
H         1.62873649444586   -0.16077527866071   -3.06668942132846
H         2.97860502843368    0.82999036507141   -2.67116490148617
H         1.33410814430265    1.45392013550908   -2.71740762810910
H         1.04088323638331    0.40712646716951   -0.37946797997476
H         1.98095176900948    2.41730075278476   -0.70057915190684
H         4.17241936575311    3.01970296648809   -0.28822721392065
H         4.46701283307595    1.81967820710065   -1.60977143319856
H         6.09761805462649    1.70075669521949    0.50291958103238
H         5.22920840169969    0.25294301289334   -0.14345567096387
H         5.16788816083584    1.00307180222676    2.52566619851134
H         2.59638239545041   -1.05061683581951    3.58307151945990
H         4.00820837105151   -0.11416087643922    4.07501003329903
H         3.93102583450372   -3.05812667327673    3.33528948566382
H         5.24806201360839   -2.34911417619263    4.22236447997391
H         4.98889781815549   -2.59702124701180    1.23678677008020
H         6.11736716763884   -1.46696004862689    2.13585703428242
H         1.96237700296067   -0.31216773425477    1.39229521885252
H         2.46839417817316   -2.01687016739894    1.32010591745944
H         1.55710674947840   -2.26511989288506   -1.09030394110750
H         3.21380260058183   -2.77894257643802   -0.74567848265225
H         2.93252003541054   -1.83881023337177   -2.20783648803253
