37
 energy: -49.581130200508 gnorm: 0.128539428525 xtb: 6.4.1 (79825abcba525fcdf90b791dcacef51065a7a4e7)
C         2.91709778176846    0.19053696016956   -2.33510547613623
C         2.33092809244499    0.36987945655841   -0.92764113993288
C         2.93546449912876    1.64416260405047   -0.27230892747531
C         4.47052558654551    1.54042795684839   -0.15103056629864
C         5.01015116283725    1.70701872069251    1.27986228990560
C         4.05204709885593    1.08461615437054    2.28543425813736
O         2.82337848822943    1.88118804979200    2.23434620806248
C         2.22206854521033    2.02838870420846    0.99614284159773
O         1.11318259784536    2.56392076477148    0.98596704195555
C         3.78245372916450   -0.43905083231117    1.96660157535388
C         4.06916484905986   -1.57622836407283    3.13331864634731
C         4.81296062770955   -2.43282532699687    2.09939689600822
C         5.05694841962813   -1.20113980397723    1.28201807976724
C         2.42104535498700   -0.77677872594912    1.25859116501501
N         2.58479268003281   -0.85896655359546   -0.18575659401258
C         1.72956655596873   -1.94142045067924   -0.66579025248227
H         2.92388203560193    1.08121126018638   -2.97123688978767
H         2.27093257124112   -0.53476558207708   -2.84838923456139
H         3.85768924491707   -0.36074057848597   -2.40930319103352
H         1.24902667366687    0.49028101105789   -1.03468130271683
H         2.63648205798364    2.39871963211537   -1.01269832253310
H         4.94692172076881    2.25483014514066   -0.83906447880536
H         4.77137901318766    0.54326245392512   -0.47711592347927
H         5.05873004351222    2.78013507208618    1.52161971795349
H         6.06270013480112    1.41106644359438    1.29222998243872
H         4.34357777517690    1.12890548130635    3.34104025978448
H         3.15171322568585   -2.00960017473076    3.54049210704607
H         4.64812071328039   -1.19915373264617    3.98789479623993
H         4.13424526176861   -3.14761382493262    1.62990747290611
H         5.67491613086417   -2.98651785998742    2.48612897379474
H         5.00820676321632   -1.29980552840816    0.17472752684714
H         6.07002257293485   -0.92505139005781    1.57358850173488
H         1.61499734473861   -0.05598147135092    1.45753218383559
H         2.13085156955199   -1.76924765917648    1.61926126860058
H         1.98013014388433   -2.89444649540577   -0.18035455609714
H         1.98480921296178   -2.03396350659042   -1.72610608760777
H         0.65043702089891   -1.80964830578711   -0.56450726409895
