37
 energy: -49.577926499825 gnorm: 0.152795944792 xtb: 6.4.1 (79825abcba525fcdf90b791dcacef51065a7a4e7)
C         1.91117619846688    0.49461722757224   -2.41388529083550
C         2.08676168938073    0.45126902704017   -0.88941648232312
C         2.69120305553249    1.74990275722640   -0.28367463746077
C         4.21600094884394    1.83164141798550   -0.50771043718091
C         5.05365839517123    1.01319440877188    0.48972482936459
C         4.33821006614715    0.84125110599121    1.82205081847580
O         3.19070665311195    1.70146573488078    2.12210089403680
C         2.25288501575839    1.96874634389183    1.13953236018452
O         1.16652228884532    2.37952584555668    1.54892508618315
C         3.77261261353515   -0.62951307143853    1.93540094953435
C         3.68729296800836   -1.08098264653471    3.52458329558176
C         4.96118752860382   -1.92372884941632    3.37307028414425
C         5.03831828628660   -1.66414945488856    1.89951784742964
C         2.60358141694519   -0.94478259960775    0.93403047094912
N         2.85991768084168   -0.71491993686230   -0.48059434005122
C         2.67461737698023   -1.94386494159546   -1.24799804463975
H         1.19955279851458    1.28995354990373   -2.65687126285896
H         1.47997323192938   -0.39638775637308   -2.89056923650738
H         2.87060236880782    0.79950941027240   -2.83893435628846
H         1.12776534221726    0.22280433469450   -0.41550224466658
H         2.27720476206274    2.65480360924898   -0.74916698953541
H         4.51947019494644    2.87666966732528   -0.34480921793497
H         4.45760708170171    1.59309557649222   -1.54496924728244
H         6.07847626284793    1.37202323485236    0.67241439454557
H         5.02667320992087   -0.03569236126285    0.18197751528372
H         5.00474098703808    1.07790839571676    2.65929963516717
H         2.79474166575075   -1.69591880313106    3.66784716651668
H         3.73464733670159   -0.15682992348085    4.11735212227883
H         4.71964653999801   -2.95475428591623    3.63885584393885
H         5.86256479064584   -1.53347717814080    3.85714370497040
H         4.80433515466171   -2.52611132149032    1.23583367291285
H         5.97203212169448   -1.25721202783251    1.51204169126049
H         1.68646459314271   -0.48562017630718    1.33014435955674
H         2.48463578655720   -2.01565990357529    1.12989696400864
H         1.64166430203490   -2.30810495192337   -1.16417843065182
H         3.36830751321924   -2.66782620921779   -0.80907119535239
H         2.98281151389271   -1.73723707334593   -2.27486901777964
