37
 energy: -49.580703790336 gnorm: 0.144479872729 xtb: 6.4.1 (79825abcba525fcdf90b791dcacef51065a7a4e7)
C         2.35787443587492    0.34021535063444   -2.40648659228902
C         2.11259657036591    0.45112670673284   -0.89511240613937
C         2.86682342135815    1.69892408924967   -0.35394176538619
C         4.38307529983047    1.41517452484760   -0.30548270107057
C         4.93767897202843    1.70313508086342    1.10018301142205
C         4.08279709930369    1.00043494102153    2.14512933572099
O         2.82481304576560    1.74982949814633    2.19658051480308
C         2.28166314128793    2.10206209243673    0.97293447605026
O         1.27952469102903    2.80809556459391    1.09024362531133
C         3.91488311243716   -0.54628907166204    1.87063774251577
C         4.03288835652857   -1.42434166757615    3.26767143053696
C         4.94672387106371   -2.39283507810663    2.50418608618977
C         5.16564284560725   -1.46222814963810    1.35061223861184
C         2.52566666347756   -0.83754324502704    1.19682747741242
N         2.61373396130770   -0.75845624128455   -0.25427481223246
C         2.09346147879237   -2.02861955081282   -0.75382678538993
H         2.14733271718629    1.30072067428050   -2.88722729220096
H         1.77464568486675   -0.54283871695790   -2.70163606520947
H         3.36317919866983   -0.03051195151051   -2.62107486925629
H         1.04214588964243    0.62348791317041   -0.75057259512103
H         2.72069474850079    2.56678344205037   -1.01150530386869
H         5.00110970279002    1.88832725210214   -1.08321941288665
H         4.43966571172539    0.33851963199585   -0.47517435094973
H         4.89917693336296    2.79743625391880    1.21597505406240
H         5.93655310257878    1.25878458089088    1.12026175790897
H         4.43513627844820    1.17212535031483    3.16866986104872
H         3.07295591093814   -1.66240530506734    3.73369099670558
H         4.63670588208640   -0.81092303421395    3.95089726937143
H         4.36651493356258   -3.30276178091779    2.33869153480924
H         5.84550856379453   -2.78160877930253    2.99423250779876
H         5.07433307708663   -1.86095878530270    0.31577919121256
H         6.08648129321599   -0.88246333780492    1.40966030633346
H         1.75431231417331   -0.17587814560602    1.61641222890136
H         2.27189432291555   -1.84426022664745    1.54526750115042
H         2.69487989463341   -2.79599017183268   -0.24773708143910
H         2.11239117809537   -2.24539169803694   -1.82650296947064
H         1.04796197727233   -2.21592868007173   -0.50086676112056
