37
 energy: -49.567488719339 gnorm: 0.142202614065 xtb: 6.4.1 (79825abcba525fcdf90b791dcacef51065a7a4e7)
C         0.82647692012941    0.44086207084963   -1.01316524465602
C         2.16948397471437    0.35059361577837   -0.27499308889779
C         2.93781793433990    1.70173907272928   -0.32782324076420
C         4.44841370569505    1.66186177431217   -0.64149839029425
C         5.33066157057699    0.96754666168041    0.41015166566822
C         4.53666553819739    0.65259035045902    1.66987232103768
O         3.61421423138006    1.73905553838359    2.00963735735123
C         2.72206425611214    2.22232039447446    1.06787689186865
O         1.90835081087071    3.07697701748262    1.41995455011706
C         3.92226969244239   -0.80271954097071    1.69193507217662
C         2.75256021215519   -0.85161582296015    2.86069235849042
C         3.48620806674114   -2.02727729225960    3.52066632565634
C         4.67755689492390   -1.91822723776405    2.61873315113449
C         3.62226445821252   -1.58279425170460    0.36142693767081
N         3.12322171475930   -0.68009789160747   -0.66609633007371
C         3.11825033739048   -1.31272716162404   -1.98264710343278
H         0.08608435049001    1.00632900675481   -0.43864292534074
H         0.30958856049550   -0.52835539067780   -1.03546776352594
H         0.90794992012622    0.69329168752116   -2.07324352532882
H         1.95576309376454    0.19713127282396    0.78672133262279
H         2.41671415648685    2.28820494296053   -1.09686934071543
H         4.72978059388366    2.71766142758279   -0.77124508088569
H         4.61068991583152    1.27320382356465   -1.64837222229595
H         6.17124692022528    1.67308119804444    0.49972031467206
H         5.64795032958626    0.07715460666834   -0.13951176170285
H         5.25171142258574    0.63329985878083    2.50028966534931
H         1.72685794664019   -1.11486141572139    2.58874484939418
H         2.79008669370690    0.10959949808871    3.39204199429066
H         2.92410921139366   -2.96232608940984    3.47912013751155
H         3.72370055682838   -1.95065051334970    4.58688865881012
H         4.94510031116053   -2.87038900404740    2.10881989464094
H         5.60333877140506   -1.58416743510137    3.08658924633311
H         2.97699792480828   -2.44294588864378    0.59079531247233
H         4.61589063260683   -1.92704551114182    0.05566881714433
H         3.69495442771767   -2.24755405104379   -1.99677650639231
H         3.51895331351287   -0.59034740793950   -2.70069119055759
H         2.11568568570996   -1.41024928600067   -2.40395013347244
