37
 energy: -49.574232243395 gnorm: 0.141572971283 xtb: 6.4.1 (79825abcba525fcdf90b791dcacef51065a7a4e7)
C         1.64218279617717    0.43092783283236   -2.27346347143424
C         1.95560364292696    0.38886275020623   -0.77122768817471
C         2.58415715172155    1.75349655427699   -0.36946014875819
C         4.09092203322759    1.98713170186090   -0.60811484133670
C         4.98616034608344    1.07732372710158    0.25048891243803
C         4.44767236438102    0.80697071824726    1.64815240998943
O         3.32365330093277    1.66753944256817    2.02599619482125
C         2.33320514888940    1.95130486973736    1.10139958350920
O         1.27120752019820    2.44744394048842    1.47893533139627
C         3.92035795958610   -0.66402868904178    1.88052321052413
C         3.61391887666112   -0.99524540415176    3.47206187179456
C         4.56614219583790   -2.19690937058999    3.39954177536022
C         5.15352707600067   -1.71327105950299    2.10889837840619
C         2.63910309301554   -1.13227336563715    1.10084091894168
N         2.75430754761607   -0.73357972545738   -0.29468039239635
C         3.18888228998485   -1.67955411439188   -1.31929137705617
H         1.13579967728179    1.38630369108325   -2.44329578203243
H         1.03848204846381   -0.39257223731679   -2.67898350629141
H         2.57178236092856    0.39578999643329   -2.84681720033336
H         0.99858228601138    0.35637497086547   -0.24253168830588
H         1.96930785516352    2.54077773697631   -0.82670399707733
H         4.22932609836848    3.02848918697397   -0.28080254760265
H         4.26312307786473    1.74091322273898   -1.65735587311258
H         5.90443840990688    1.67017542501093    0.38344575199979
H         5.19061426080398    0.09713569090580   -0.18886294996187
H         5.15723390188493    0.88976040607523    2.47937079032064
H         2.57237836965901   -1.15767931178912    3.76210916340538
H         3.91373176551650   -0.14521044508675    4.10073378075396
H         3.99313984753860   -3.11566922532636    3.25973440984732
H         5.26905289118963   -2.44170786472825    4.20271962621654
H         5.55563260387878   -2.46539981297690    1.39418409479737
H         6.00601543680106   -1.04493313171635    2.22783270163941
H         1.74613519613142   -0.69625814169231    1.57130733206002
H         2.56879021577293   -2.22277271539840    1.17265444883752
H         2.62569008815307   -2.60698488724267   -1.14789924633444
H         4.23096159617416   -1.91044516596138   -1.07692237793867
H         3.07047626581709   -1.41377993368447   -2.37166335349238
