37
 energy: -49.580309605930 gnorm: 0.137735787021 xtb: 6.4.1 (79825abcba525fcdf90b791dcacef51065a7a4e7)
C         2.66791937375420    0.46951624612117   -2.41318408951877
C         2.19427573906276    0.49584824404435   -0.95315572837358
C         2.74922694105747    1.81058043867680   -0.33490779845401
C         4.26817288508929    2.07936668192441   -0.28552140800056
C         4.98425750651087    1.05272822486610    0.60870389013067
C         4.24086933725077    0.75532859967939    1.90309594588239
O         3.13972458976837    1.69568238634705    2.12665421921731
C         2.27023688562596    1.96493993098866    1.08363900243847
O         1.14091839423512    2.32922579835085    1.41297426458622
C         3.62685171457624   -0.69901160932174    1.96451941822575
C         3.81674323711439   -1.29877796855447    3.49449530937221
C         5.12754947062284   -1.92796791612083    3.00267041090538
C         4.69860726239407   -1.86870636576978    1.56838172021078
C         2.31487222012205   -0.79217720715787    1.10498374109478
N         2.71093038103924   -0.69656788119123   -0.29276632412807
C         2.38090931243332   -1.90586042905980   -1.04259836286855
H         2.17434099773031    1.35867369954737   -2.81789302860229
H         2.20841499572536   -0.45106963684457   -2.79845131115954
H         3.75129065620147    0.41060285263042   -2.54341618691512
H         1.11106371829568    0.64620779391359   -0.97570611834712
H         2.26318666569045    2.63866081061256   -0.86873454599591
H         4.41347101987129    3.08472831954229    0.13738620972144
H         4.63788130950748    2.05666192013809   -1.31215846529739
H         6.00019438101480    1.43405130069881    0.79538605617794
H         5.09707116650309    0.12378533111555    0.04307307008352
H         4.87623852563064    0.85740425927930    2.79030632263579
H         3.02907539288670   -2.04543560723504    3.62640653531650
H         3.68468832106069   -0.61630292724132    4.34565033331631
H         5.40322159555312   -2.88259896559296    3.45508824941176
H         5.97966679226691   -1.28894263690088    3.25692849542289
H         4.15237501534355   -2.76922751831570    1.20936218617072
H         5.56909654000920   -1.73733792643688    0.92608264420283
H         1.60326342988637   -0.01392180293281    1.41606419762481
H         1.86828795002148   -1.73635789587876    1.43418769777381
H         2.44691932860330   -2.74068728719981   -0.33168672277789
H         3.09132829108111   -2.07439075757941   -1.85800323070750
H         1.40177793428902   -1.89504906659345   -1.52563826761811
