37
 energy: -49.575184629719 gnorm: 0.136251900174 xtb: 6.4.1 (79825abcba525fcdf90b791dcacef51065a7a4e7)
C         2.07553859800223    0.55853733916429   -2.41707403314767
C         2.02555318941973    0.49772416608137   -0.88393421428069
C         2.82863449600624    1.70357138479059   -0.31850073595677
C         4.34742242992084    1.44853368609480   -0.41910311560419
C         5.06723817683472    1.42702808090980    0.94023694078670
C         4.24091079613307    0.83654294989308    2.07383019305097
O         3.06308633366192    1.69624866522240    2.21665496477081
C         2.34895994311567    2.01382884330697    1.07404585549748
O         1.30908127310910    2.66311121623564    1.19071175392870
C         3.76908519303414   -0.66640442833592    1.95372333173303
C         3.73392190812090   -1.38929702250784    3.44126981214167
C         5.11250551490126   -1.98900721579770    3.13169005557211
C         5.00545114006818   -1.69714467875941    1.66606970434761
C         2.55089838267032   -0.99236909181165    1.01641895687983
N         2.65128240746271   -0.73152055810787   -0.41242306304632
C         2.28269675648024   -1.85608137560310   -1.26861114896448
H         1.77869770635814    1.53137854752979   -2.82139491821714
H         1.44214556540700   -0.21197210323091   -2.87770613597692
H         3.07507230087882    0.33578599029262   -2.79843834781236
H         0.95707562851915    0.52547395455058   -0.65144667961655
H         2.67792797997466    2.65219158061296   -0.85172726459689
H         4.79254484075607    2.21211705934935   -1.07448155293306
H         4.58661079742084    0.44718477376361   -0.78141894495586
H         5.28751993586021    2.48791603408170    1.13613985692131
H         6.06694957746696    0.98417312868125    0.93271065541842
H         4.76102408915520    0.91448066614621    3.03542447870360
H         2.95476494758439   -2.14507933562195    3.57175487448860
H         3.69080995137912   -0.65703669320564    4.25956787981182
H         5.19601827458548   -3.04443889778775    3.39831159433055
H         5.83199643538689   -1.31133509785297    3.60306859416066
H         4.69339525354747   -2.55995574873005    1.03648157365396
H         5.88878765532345   -1.35399913012813    1.12799435439414
H         1.72107845398994   -0.37983306021933    1.39725762129937
H         2.41660846006699   -2.07676670817833    1.08948024384824
H         3.05840730121341   -2.56075253522143   -0.93936917583346
H         2.26365428213426   -1.65400751863542   -2.34415112129238
H         1.31944396154821   -2.26975695855364   -0.96339113381261
