37
 energy: -49.580101842895 gnorm: 0.134748353740 xtb: 6.4.1 (79825abcba525fcdf90b791dcacef51065a7a4e7)
C         2.31866899041620    0.56967333899942   -2.45387513627895
C         2.12860090695664    0.45198756811641   -0.93508000985236
C         2.63054522942684    1.79935078025044   -0.34230151187648
C         4.15593749038443    2.02979426420938   -0.38652942819998
C         4.89488212257902    0.94449571160190    0.41502561740808
C         4.27558964716805    0.82779893202338    1.80044325031257
O         3.18794501490244    1.78578930784130    2.01502866517301
C         2.17453933575523    1.94215646675707    1.08500312765489
O         1.13304524881947    2.41064887127087    1.54579712056227
C         3.83197315121891   -0.67745659273803    1.98294291369907
C         3.78897441839830   -1.25852466359111    3.53120506550932
C         5.14607306717608   -1.95451227882854    3.35837800328805
C         5.09664931636181   -1.70897022857596    1.88123421034474
C         2.56792981715940   -0.94424445081357    1.08863298323822
N         2.70340531419807   -0.75220006858662   -0.34819468327417
C         2.41960109839442   -1.91747037100352   -1.18195167060394
H         1.75212028872426   -0.21693911226111   -2.96208112273920
H         3.30179823295512    0.43927736036767   -2.92664065598609
H         1.89423625800647    1.50673945824214   -2.82250565868378
H         1.05938919207187    0.38431672282215   -0.71446322966208
H         2.12749912592377    2.62822616307804   -0.85886077025096
H         4.30043625628577    3.07779842555903   -0.08400371062246
H         4.54711532543468    1.82058351756927   -1.38372261494615
H         5.97119493556057    1.13517914875534    0.54759943094983
H         4.81882927092804   -0.01862483177185   -0.09704355248402
H         4.91854759078412    1.16531507234349    2.62138395398866
H         2.96042656967658   -1.96840396392323    3.60119556397691
H         3.74848061438752   -0.50266752772383    4.32789559212248
H         4.97507458830545   -2.98260143054628    3.68363125266915
H         5.99432075911506   -1.52580634749784    3.90224516033777
H         4.75702254559588   -2.59458049847595    1.29938272848048
H         5.98570607542533   -1.27490520506283    1.42437209829939
H         1.74665958773177   -0.33325979070974    1.48994649795676
H         2.35078881369540   -2.01146065980267    1.20347752454006
H         1.41885119306895   -1.94081219923066   -1.63432688879115
H         2.53549384270420   -2.82686504439852   -0.58399440728143
H         3.19517192900051   -1.99707323335970   -1.94634421128739
