37
 energy: -49.578690493190 gnorm: 0.144984262696 xtb: 6.4.1 (79825abcba525fcdf90b791dcacef51065a7a4e7)
C         2.12252303652976    0.37424196451840   -2.41127958152145
C         2.04859983600452    0.39356055300153   -0.87802271311425
C         2.67903528728295    1.66811582396301   -0.24811629084813
C         4.19492522568470    1.66186915169656   -0.53780668555819
C         5.11366791004276    1.41030355316720    0.67009613809304
C         4.34294884671204    0.95092832006349    1.89952277480830
O         3.13424617000600    1.72982895883870    2.18079659293487
C         2.26889148750853    2.05008420737852    1.14881447241746
O         1.26297399415344    2.67499969083127    1.48665585000566
C         3.88153967748388   -0.56001283817748    1.89214946853547
C         3.83592842620829   -1.18273035784537    3.42405914477917
C         4.64878481327000   -2.35162362712347    2.85052821444822
C         5.11580775741373   -1.60249658162006    1.63999707393784
C         2.51875765076586   -0.84792330789305    1.16502887601331
N         2.74016600591180   -0.73625566808210   -0.26961991658551
C         2.58169146554683   -1.99676847149835   -0.99041375818048
H         1.89500556989946    1.41214061102048   -2.67398115086261
H         1.32325070529660   -0.24057643738210   -2.84741664787138
H         3.02926908263127    0.02357328357710   -2.91024611552857
H         0.99865970135260    0.47473410674024   -0.58221639785223
H         2.26205571258268    2.49879239698778   -0.83380198446157
H         4.39600406428430    2.67765398377827   -0.90991273087933
H         4.37203690945749    0.90397685431867   -1.30293033400390
H         5.67150535240483    2.32175236296731    0.93554616495851
H         5.82826537210181    0.61110843528744    0.45506663386201
H         4.94433021103863    1.13386595544139    2.79737019662484
H         2.79137917446112   -1.39605164528287    3.66640132276768
H         4.29793337462155   -0.57160450498127    4.21193742945578
H         4.07782652199313   -3.25801868145443    2.63969154764892
H         5.50228273361238   -2.69117401185973    3.44664166798796
H         4.99307584473211   -2.22270490017723    0.72431068456469
H         6.06378906527825   -1.08604332378142    1.78887568376980
H         1.75509998393239   -0.15259658939131    1.54210623525773
H         2.17017057316564   -1.84505161866303    1.45401351095918
H         2.82389699936081   -2.93429160783409   -0.47168896265593
H         3.39651266832350   -2.06882083401307   -1.71763969610628
H         1.56397690082169   -2.10663410907014   -1.37032072255474
