37
 energy: -49.576006005848 gnorm: 0.150300786950 xtb: 6.4.1 (79825abcba525fcdf90b791dcacef51065a7a4e7)
C         2.41051210412240    0.37508791630833   -2.40554439096141
C         2.12873483214209    0.46498384228689   -0.89914644468679
C         2.88936577725025    1.68191605216084   -0.29978122718437
C         4.41417274088912    1.44354306387532   -0.29489329472863
C         5.06043741759500    1.64696442011738    1.08618032006674
C         4.11563952978810    0.99051779955588    2.08265315378826
O         2.85995361728383    1.73025464377041    2.23366839984607
C         2.30560555040507    2.10452559049090    1.02164169484982
O         1.19710064869021    2.63791743530200    1.07852928567701
C         3.86601460877199   -0.55474669941128    1.86878181194711
C         3.81583843806506   -1.42117062478984    3.27711297387677
C         5.04137538575431   -2.16198180491529    2.72462524316058
C         5.08767247140058   -1.52104861268882    1.37120416225463
C         2.48770914960805   -0.84232386150323    1.17139738218017
N         2.51799279583954   -0.79770834924624   -0.28352556930213
C         2.14197544618627   -2.06851999879627   -0.89769097504396
H         2.35039521186491    1.43428752540504   -2.67478789528766
H         1.52893433203243   -0.02597996609286   -2.92421447297717
H         3.37714490217019   -0.05337275899418   -2.68152809630731
H         1.07719482417481    0.73867775141257   -0.77336863600895
H         2.64365616197157    2.50604360079005   -0.98342135938420
H         4.90310518196546    2.11266974454722   -1.01872267936782
H         4.64309024058867    0.42304670346418   -0.60693085228634
H         5.27156387231911    2.69937853669010    1.33160933526867
H         6.01109222392223    1.10675358962518    1.08091224692308
H         4.62861004544697    1.07634761479172    3.04740711262286
H         2.99980550120663   -2.14858816600274    3.29362971911254
H         3.96615892112917   -0.89248742846849    4.22872917482644
H         4.93571696260728   -3.24863925221544    2.72156687366476
H         5.92358815837855   -2.10302073528420    3.37063501705857
H         4.83039992793497   -2.22689663039440    0.55035554765603
H         5.94202377339824   -0.89068742444691    1.12567211508717
H         1.74956814794603   -0.20858233655809    1.68360743165466
H         2.16538757739819   -1.82514127481454    1.53121492452449
H         2.67772955744646   -2.95437411905196   -0.53037834565497
H         2.36353419065723   -1.91880032319812   -1.95904785953462
H         1.06925658320020   -2.26584961756901   -0.84791196614223
