37
 energy: -49.573490637924 gnorm: 0.159404111838 xtb: 6.4.1 (79825abcba525fcdf90b791dcacef51065a7a4e7)
C         2.34429926098898    0.43269705576694   -2.35553420609570
C         2.06006975601482    0.34935868321054   -0.84921989999270
C         2.52545535554685    1.70522471886326   -0.24609003575155
C         4.01007370575745    2.07134868332856   -0.45523941676144
C         4.96526241030897    1.15973346627677    0.33404814041571
C         4.35374818646059    0.78686892265037    1.67700968652687
O         3.24005547136647    1.64120898644542    2.09719408018820
C         2.20302976700268    1.88489069834986    1.21312045443853
O         1.17168100239844    2.39156030620881    1.65598816699607
C         3.78369755854311   -0.66481736617685    1.92909135482397
C         3.74450527246654   -1.01525291432101    3.54534121915261
C         4.94197318909974   -1.92561135974385    3.23988615081254
C         5.09972862413760   -1.62390995340053    1.78085329103475
C         2.50071348485191   -0.99144746549709    1.08290209053597
N         2.72190917271286   -0.84927791103347   -0.34907861633264
C         2.64552650410095   -2.06986347732645   -1.14775690603708
H         1.96832757113347    1.40212523077782   -2.69738829032341
H         1.73426530892035   -0.26870202091872   -2.94115471505251
H         3.39641814695745    0.27833415682395   -2.60721350513041
H         1.03008099222788    0.31679404609301   -0.48243999171914
H         2.00396172357364    2.52208679497722   -0.76349123410947
H         4.27013806886336    3.10221281469158   -0.17169030709946
H         4.18234968656771    2.07241607845496   -1.53297005595818
H         5.91453043138082    1.71484324082149    0.38998223079776
H         5.01653317028461    0.24230645826618   -0.25865672083849
H         5.06753237915532    1.00207211106144    2.48041209587847
H         2.89782729509367   -1.69002868203225    3.69743627359762
H         3.78281641879178   -0.12960484869045    4.19482973162703
H         4.68502317728735   -2.96292533506651    3.46338978144431
H         5.82519625084477   -1.59973961361097    3.79919737135909
H         4.89590418154254   -2.44276571397557    1.05550241969965
H         5.99211082326275   -1.12222916103736    1.40731914355171
H         1.76354987203075   -0.22143577704681    1.35218152823088
H         2.23095360398624   -2.01813014487056    1.35205300461514
H         1.74494444038221   -2.11963158185576   -1.77478452978051
H         2.77776163957192   -2.97206135042501   -0.54233510368359
H         3.50749255208848   -2.13332495566236   -1.81493743980954
