37
 energy: -49.586431290822 gnorm: 0.131670490678 xtb: 6.4.1 (79825abcba525fcdf90b791dcacef51065a7a4e7)
C         2.78637407677356    0.43118290550995   -2.36981131903520
C         2.24247196747613    0.44990270565982   -0.93435509703323
C         2.94601093456320    1.66793636199213   -0.27091778166152
C         4.47099982762049    1.43209291176985   -0.24506032606516
C         5.03456886088312    1.73506446874758    1.15386811941855
C         4.13559115484278    1.04586448641764    2.17041412868803
O         2.83985571746453    1.72688357754195    2.23402228881667
C         2.21286058223778    1.93159998117486    1.01691195946719
O         1.09364672665717    2.44529767898405    1.01581617652997
C         3.83655734597364   -0.49068478008904    1.95712780334800
C         3.96443048056811   -1.49429241597695    3.26595357034152
C         4.85962248741366   -2.39133709792972    2.39997042043587
C         5.03287164189864   -1.39026249196200    1.29882476263163
C         2.50416682129138   -0.79534412226826    1.18208600996213
N         2.59829299397903   -0.79828447995888   -0.27078703310459
C         1.80944799687931   -1.92293813583018   -0.76720238097457
H         2.90331777906925    1.41869608391616   -2.82714249630229
H         2.18272627821070   -0.16491209594204   -3.06790411748279
H         3.75282129590288   -0.07742336916754   -2.40754671743417
H         1.15382496180463    0.55585408313376   -0.94367256708973
H         2.66197633516036    2.53284296913467   -0.88588459107586
H         4.98613864742040    2.03479154582950   -1.00801561933435
H         4.68864710023889    0.39122994917859   -0.49085992127273
H         4.86764486141471    2.79555452780063    1.39857708678373
H         6.07990601890685    1.43813313469553    1.27512015736821
H         4.47576864447880    1.13716116579555    3.20829653925190
H         2.94109623505351   -1.78472423895308    3.51845151822884
H         4.49570144298556   -1.16261843104112    4.16895915760318
H         4.28156536051117   -3.25592062078777    2.06779162350118
H         5.72228992565585   -2.67599936409532    3.01142499441398
H         4.92728623265348   -1.74505789432925    0.24945591599372
H         6.05757849905157   -1.02259062637026    1.34730786121357
H         1.72837136777980   -0.08888894311115    1.51057055104056
H         2.21316216008990   -1.81429563484790    1.45839025770654
H         2.27212039295198   -2.82218782913162   -0.33828186055291
H         1.87415143539329   -1.85772117695210   -1.85786406711089
H         0.79191244008367   -1.92449039248475   -0.37127097640100
