37
 energy: -49.567815182825 gnorm: 0.132280122501 xtb: 6.4.1 (79825abcba525fcdf90b791dcacef51065a7a4e7)
C         1.12061146959931    0.68393082438431   -1.44963406805784
C         2.23354485726344    0.36626802957998   -0.44107860031057
C         3.00058723658756    1.70663978167443   -0.25730779913266
C         4.52630621271713    1.64659444493684   -0.48193650296580
C         5.32451233821973    1.38703784273075    0.80721048662361
C         4.50903392145618    0.64350608027401    1.85538927635054
O         3.36162825267735    1.49614072519197    2.17669553893684
C         2.70925403103257    2.15598928558424    1.14937035101191
O         1.92923877299094    3.04361638276942    1.49609868330197
C         4.00017753236910   -0.82696576480417    1.58212452292281
C         2.74111425069011   -1.11139768763215    2.61675626729676
C         3.73890082171724   -1.77005769142763    3.57934323025937
C         4.77715641582389   -1.92611758685661    2.51053172820696
C         3.76102683891965   -1.40786298319441    0.14193810160258
N         3.06362850936313   -0.72418511685892   -0.93784362563527
C         2.40636413974745   -1.74426067173162   -1.75086261234977
H         0.46128791439864    1.45891119152693   -1.04626352282364
H         0.53508128285353   -0.23517055780633   -1.58913505702231
H         1.73347950158252    0.91947617729028   -2.32315321384840
H         1.85753997677111    0.07998520683560    0.54539354628368
H         2.52265090498326    2.39318621320020   -0.96945535158149
H         4.87309117836512    2.57507803918789   -0.95982020784188
H         4.73659100368895    0.91473368428032   -1.26382116194916
H         5.68099250997482    2.36064892330124    1.17787018348646
H         6.25139546125473    0.90999123693612    0.47718888144107
H         5.02685996678021    0.53029794798514    2.81470976863884
H         1.88266052941706   -1.68501991629131    2.25712649271374
H         2.29879338203199   -0.21465161984819    3.07268861043614
H         3.47741709735360   -2.67550123694755    4.13051988936969
H         4.05994180722763   -1.17992532844132    4.44408648143703
H         4.66048414320150   -2.92564456761290    2.03562496077318
H         5.84551553389833   -1.83390719228768    2.70460231622610
H         3.35545054273237   -2.40298703782229    0.37447966602843
H         4.75155178168280   -1.64747797666374   -0.25897949269066
H         1.69754653878174   -2.38711258742096   -1.21141142163567
H         3.25791461226795   -2.31576544669003   -2.13325872300754
H         1.99785369135511   -1.24390205704958   -2.63114845519682
