37
 energy: -49.573397534815 gnorm: 0.148528090407 xtb: 6.4.1 (79825abcba525fcdf90b791dcacef51065a7a4e7)
C         2.32109982559469    0.57669623881017   -2.37905501382007
C         2.07588794238496    0.43387634860706   -0.87035089764328
C         2.85793649615083    1.66734422666569   -0.33586123889217
C         4.37514873673137    1.39064801963669   -0.39406849675417
C         5.08398217805598    1.66252808596522    0.94385488853907
C         4.26952911634830    1.05521508898422    2.07715116274151
O         3.04321766143737    1.84884734156316    2.19148127324204
C         2.29320004956025    1.94336794231853    1.03177066811465
O         1.12933258467630    2.33994794843612    1.10005685405733
C         3.90707375638033   -0.46812398702893    1.86748457680893
C         3.87169515905691   -1.31312989946793    3.28921524313849
C         4.83398524383617   -2.35025815872489    2.69394432427823
C         5.06750884279613   -1.54318258173392    1.45346734370303
C         2.52601214084587   -0.85619216298048    1.22651382602231
N         2.58505461171109   -0.77030031610756   -0.22567246780753
C         2.18290712115480   -2.05766012924089   -0.78650449997264
H         1.95976121936857    1.55453849952172   -2.71262485598155
H         1.86963582265915   -0.28459498954723   -2.89033883602120
H         3.38840687834895    0.50294698746511   -2.60163361148095
H         1.00795512003336    0.65682320357368   -0.79111079279172
H         2.59360461275877    2.47107956654575   -1.03661898211635
H         4.87802324811475    1.99581737964924   -1.16322498063779
H         4.55927869354695    0.35727197747267   -0.69308955867144
H         5.12696662504144    2.75101374223669    1.10428110809254
H         6.12689741184354    1.36566034462198    0.80315165020888
H         4.85329428479977    1.16964293940548    2.99768371967729
H         2.92347730106217   -1.62825177243709    3.73294931614528
H         4.35531525265191   -0.78866255970758    4.12511067867762
H         4.35870173441286   -3.29264163865727    2.41463012061976
H         5.72322799258126   -2.61834753523004    3.27401313908275
H         4.67323224602558   -1.91056866366089    0.47992922093191
H         6.06096138494900   -1.09642149912106    1.48530974253369
H         1.72595077414616   -0.16401204715849    1.52589333836688
H         2.38003669638547   -1.90775511924123    1.49520779507859
H         2.63588617153949   -2.83008924146951   -0.15022483410584
H         2.35227934555212   -2.13285753934713   -1.86522647250891
H         1.10579448166169   -2.22445550173430   -0.72208122748558
