37
 energy: -49.578531172362 gnorm: 0.152198115033 xtb: 6.4.1 (79825abcba525fcdf90b791dcacef51065a7a4e7)
C         1.99699634255377    0.42612873096917   -2.30977220129706
C         2.05979250073936    0.38366776269591   -0.77648547168298
C         2.83479073024300    1.62971235831151   -0.26124502570312
C         4.35815123201239    1.43185013351391   -0.40992307230590
C         5.07307060506136    1.66267417690608    0.93246776396727
C         4.24912366111533    0.97010637537439    2.00856468651048
O         3.02159664697585    1.74344116982960    2.21324500838791
C         2.32663454909602    2.10731259263554    1.07262478032754
O         1.30236808878670    2.78976873036975    1.11334327589392
C         3.83525034364063   -0.55010746882432    1.89214023590297
C         3.78939714996033   -1.30961994315404    3.36103199768637
C         4.83048714689198   -2.32846414586402    2.87722128114545
C         5.03809400548012   -1.61222991134683    1.57776166055480
C         2.52830424449010   -0.92039491803711    1.10248796756678
N         2.75544861226779   -0.81772346272865   -0.33193612343436
C         2.45469247259549   -2.00276735650120   -1.13116523656377
H         1.58108293612046    1.38750201183522   -2.62724246216898
H         1.41758270100274   -0.32480133759915   -2.86424251405527
H         3.01949855425640    0.49992785127349   -2.68814694280223
H         1.03315057303970    0.46964273700616   -0.40895388975309
H         2.65258068629743    2.42858530722805   -0.99304060543067
H         4.87660958319004    2.12659298120735   -1.08760126646745
H         4.62716702228641    0.46132678545755   -0.83051599444555
H         5.12306247571797    2.70190200374796    1.29287253102886
H         6.03882885390964    1.15057724020651    0.95830927400543
H         4.75589844932417    1.18131640736903    2.95715592631403
H         2.85118955767172   -1.83245160036486    3.56531710345892
H         3.98506607007484   -0.68619910017573    4.24462448806833
H         4.49036648814424   -3.35750401984407    2.74534127751558
H         5.78963545902667   -2.30430804511131    3.40500476672882
H         4.83874025373798   -2.26970796913960    0.70244244939629
H         5.92887868247534   -1.03640068564411    1.32780021696426
H         1.76582939625275   -0.28186741157210    1.57126758813914
H         2.29829378706405   -1.92399014351215    1.47555866687727
H         2.81995710259507   -2.90413935642763   -0.62048056588842
H         3.04296114207085   -1.93038604173671   -2.05131936223319
H         1.39433394117474   -2.06056611762546   -1.38501909397926
