37
 energy: -49.568660463749 gnorm: 0.129609334668 xtb: 6.4.1 (79825abcba525fcdf90b791dcacef51065a7a4e7)
C         0.76243629262536    0.54099381302201   -0.89147848462357
C         2.14275734828689    0.27270661006242   -0.27548317661961
C         2.97373888727642    1.58715571839247   -0.29586269493871
C         4.46751873775051    1.37715133666082   -0.62205556621796
C         5.23624807844108    1.15323032073737    0.69145773408763
C         4.34229821919557    0.50811382844662    1.74083929495933
O         3.43757974970392    1.59741196606364    2.11723980536730
C         2.76326071811832    2.19369469302835    1.06551264451762
O         2.00345432019421    3.13491203740836    1.29644625715371
C         3.85279885099566   -0.98793178203660    1.60617765664570
C         2.64472952055608   -1.17976932169597    2.71989733414130
C         3.75854258860060   -1.51772121563817    3.72049399023227
C         4.68412037614006   -1.95730749295282    2.62744455826686
C         3.79082935853845   -1.51132872761401    0.12597938062504
N         2.85004633528958   -0.89087346226733   -0.79579659678150
C         3.18611265377195   -1.09867117839376   -2.20200779838397
H         0.52259558177944    1.57679627186033   -0.63147923676033
H         0.08586529935767   -0.17213796374087   -0.40081747238721
H         0.67797920508766    0.38171098041788   -1.96926348075331
H         2.01825205228801    0.02350452496996    0.78227934720042
H         2.46651379426477    2.25725165854754   -1.00340590575427
H         4.83313672746780    2.23317901632947   -1.20878764033100
H         4.59618556424921    0.53268009990559   -1.30139102202537
H         5.51143888599664    2.15051121106424    1.06840084419520
H         6.12805583044122    0.57193055721770    0.44171874484598
H         4.99046304285329    0.56950592099151    2.62252465724355
H         2.03122248533605   -2.03629666503687    2.42785477705364
H         1.94875178702840   -0.34634223428101    2.88927807408632
H         3.53121064321130   -2.29055217205390    4.45741322649697
H         4.12651483270773   -0.65671997932948    4.28827714345446
H         4.58616118843945   -2.99019205952500    2.22525491386810
H         5.73790371962268   -1.76976893044146    2.83220613575075
H         3.60083490150697   -2.58072765377187    0.29664753856758
H         4.80271568411166   -1.48263418350503   -0.29181552949905
H         2.35033417011521   -0.67421340250649   -2.77471931270214
H         3.20409042170554   -2.17469212449467   -2.40160340957897
H         4.09137128332427   -0.64400297330535   -2.60934833131212
