37
 energy: -49.579903069213 gnorm: 0.139306009906 xtb: 6.4.1 (79825abcba525fcdf90b791dcacef51065a7a4e7)
C         1.70642794426575    0.47917111957221   -2.26489522580859
C         1.99632883893455    0.38287647883942   -0.76043543037234
C         2.66706071422797    1.72994174409354   -0.36768105123744
C         4.17418722231841    2.04516394063922   -0.47297345611606
C         5.00268415977725    1.07550436972981    0.38711707886242
C         4.33576191747255    0.83257066391912    1.73349044099795
O         3.18029147513505    1.68508717384860    2.02480975262169
C         2.24081467917773    1.98470907362328    1.05321349007939
O         1.15089073030600    2.49756839156480    1.30927454901293
C         3.85642641279193   -0.66177546225075    1.91532290423572
C         3.74907706053795   -1.04484950229372    3.52104240369329
C         4.78025086842601   -2.15618005357082    3.28102222267089
C         5.16725132599790   -1.63917937927929    1.92912417063724
C         2.60752939062042   -1.08009056181789    1.05856139097867
N         2.81620386021909   -0.74801028021682   -0.34353920769050
C         2.97403997164058   -1.95307570730335   -1.15375862947137
H         1.30935680049814    1.46387693041782   -2.53078783267173
H         1.06258330052927   -0.36649240969892   -2.54305118233398
H         2.68754974847637    0.37525340100312   -2.73470969873697
H         0.98856591445242    0.44556386383243   -0.33978240466027
H         2.21407168296670    2.51641061673766   -0.98670520705055
H         4.23307268159375    3.05344142865848   -0.03636901473795
H         4.53591968687076    2.01344070251986   -1.50220944904026
H         5.96552730658834    1.58200801155816    0.55674134865138
H         5.27018334953143    0.16353565615654   -0.15358365624689
H         5.11598408949225    1.03800372766875    2.47531677350128
H         2.74202087327306   -1.41941788802899    3.72316907959461
H         4.00437655821166   -0.18417958435255    4.15487599708128
H         4.33097524804933   -3.14933191431450    3.21939218949187
H         5.57990754178624   -2.33593128479122    4.00720615870658
H         5.12542059106127   -2.33803138434595    1.06422007102102
H         6.12635693675151   -1.13015626570027    1.83655390613731
H         1.79050268341783   -0.42747990301773    1.39827640009617
H         2.26711846224026   -2.09345764827531    1.29625332874238
H         2.07991346092996   -2.56935024169844   -1.31938481943349
H         3.58967944180151   -2.62050932096766   -0.54260962331159
H         3.42116067944015   -1.68513475173409   -2.11315083491014
