37
 energy: -49.551414753512 gnorm: 0.147309924134 xtb: 6.4.1 (79825abcba525fcdf90b791dcacef51065a7a4e7)
C         0.93093445385843    0.17496116821346   -1.07060654816896
C         2.21978155158601    0.31919052327486   -0.24915324135538
C         2.82836513780918    1.74959440327010   -0.20126916715965
C         4.23220112979589    1.66730448271748   -0.83715810348491
C         5.17676357819456    1.05243111337830    0.20980660755557
C         4.60133599018948    0.58984925663727    1.54075528879970
O         3.67391413394377    1.58823032766041    2.07916705955815
C         2.77655684937946    2.21270206556051    1.22994729985608
O         1.96770034346193    3.05833489026145    1.61359094487703
C         3.88176741098820   -0.80982544024889    1.67869618728545
C         2.85216026186448   -0.76046660381628    2.97255765744971
C         3.55817575910819   -1.98219284365045    3.57663696561790
C         4.71624373223215   -1.83901168860598    2.63692151940453
C         3.55409767542782   -1.58529353452976    0.35202616597878
N         3.25177812495361   -0.61216941669897   -0.68784921032802
C         3.14977035264132   -1.20918372010855   -2.01702895458402
H         0.28202483271907    1.00746908614072   -0.78102619174388
H         0.45524884120321   -0.81255418942057   -0.99583969185332
H         1.07383503500335    0.36377805730182   -2.13740181037031
H         1.78461627545404    0.02729776466668    0.71100018884609
H         2.17499105091252    2.47999744415038   -0.69779404690659
H         4.58660006951304    2.69992149833642   -0.97433653409552
H         4.24011383865339    1.17859469869278   -1.81300829964516
H         5.85979289978151    1.85964526429827    0.51682699594959
H         5.71569041339919    0.24404904770128   -0.29186693411911
H         5.38559200475971    0.55472918659652    2.30558519175910
H         1.77559110330823   -0.79026764719819    2.78433023276825
H         3.01611105883113    0.08751240043940    3.65206284470135
H         3.05358271229103   -2.93041228777584    3.38102713991626
H         3.65768896114841   -1.81688301800466    4.65453964785949
H         5.07292683432701   -2.82573291852003    2.26629851485182
H         5.67282579281370   -1.37409954406790    2.87433428511023
H         2.59271720550363   -2.11762490787263    0.38681829935383
H         4.27774743804084   -2.25997643667459   -0.11746708652731
H         2.31275643442085   -1.92047338311398   -2.02980708472304
H         4.00303020054798   -1.89451071722797   -2.03306761053216
H         3.02114256621604   -0.51434217200650   -2.84937071428349
