37
 energy: -49.570223142691 gnorm: 0.146865027120 xtb: 6.4.1 (79825abcba525fcdf90b791dcacef51065a7a4e7)
C         2.70489025513082    0.48229574826219   -2.44225550560299
C         2.12330288886632    0.43218907864046   -1.02241046604145
C         2.57707685934886    1.70999448005754   -0.26081698598637
C         4.07840578063491    2.06444946725996   -0.30830377259816
C         4.96667915611627    1.04648588185591    0.42730697060736
C         4.28920075227248    0.85629255816368    1.77688944223500
O         3.21570290346169    1.80783503444939    2.07510513099838
C         2.15746057507849    1.77084459875082    1.18339657962131
O         0.98900352013174    2.05193745543576    1.45213640531174
C         3.84311733660996   -0.65828859292586    1.83119837343907
C         3.83726446592261   -1.06991007870185    3.43342751472977
C         5.17539271143160   -1.79645308533166    3.23969378258201
C         5.15001495668452   -1.63768403829563    1.75011808740411
C         2.50558693069764   -0.97044554092931    1.06808498933219
N         2.60366026812628   -0.78075975514923   -0.37209185570055
C         2.10949533560543   -1.98188098165780   -1.04041757297454
H         2.61800209035995    1.50480390996724   -2.82296197710879
H         1.99068971464089   -0.15193642194127   -2.98513727666832
H         3.69885260839013    0.04718432675688   -2.31248100898924
H         1.03392683284906    0.52302916491384   -1.06078598141317
H         1.99704920464862    2.46333607978108   -0.81124192503383
H         4.14420355371683    3.05510025348356    0.16603377119081
H         4.45194367101377    2.14908080426171   -1.33030693436872
H         6.00920803995173    1.39425810358530    0.49493290618175
H         4.94150940267946    0.11691505238156   -0.14790134971777
H         4.94966029054521    1.01319697107035    2.63737181491345
H         3.12432648107025   -1.84692976362523    3.72200795521013
H         3.69186680450924   -0.22920302224383    4.12606503078481
H         5.38133509330896   -2.77028461918800    3.68828863124665
H         5.95506845008899   -1.16892914526143    3.68401782771631
H         4.89541450543599   -2.59632411952012    1.24574635908601
H         6.02645296025243   -1.15992794319515    1.31289629502238
H         1.77078889439394   -0.38283829971207    1.63696913099517
H         2.21737217244919   -1.98149592957815    1.37467801233371
H         1.14006528369627   -2.43269664292999   -0.78810988530585
H         2.84861945904159   -2.74799319186883   -0.78595675714577
H         2.02319413429859   -1.82010915005064   -2.11676541034556
