37
 energy: -49.573495604952 gnorm: 0.145572635399 xtb: 6.4.1 (79825abcba525fcdf90b791dcacef51065a7a4e7)
C         2.14396024104581    0.44411855425950   -2.33158012044266
C         2.12096118718498    0.43556959998004   -0.79661678880845
C         2.74987478147300    1.78666661049809   -0.35195213736301
C         4.27472131580298    1.67765533958198   -0.56371001675219
C         5.11746567941419    1.52937610538415    0.71464742559572
C         4.34510868896997    0.97231946399222    1.90194512063830
O         3.10743186521654    1.70635172326497    2.17783640029816
C         2.31639361120402    1.98311171190215    1.07599629882838
O         1.18323826922278    2.41014401973514    1.29989033966148
C         3.87063838023418   -0.53443638750503    1.92340609887493
C         3.78822372512671   -1.23801088547203    3.41832931753581
C         4.78261968436917   -2.29821280467776    2.92524386297277
C         5.05764061048781   -1.61719575800655    1.61938526965732
C         2.52618535871325   -0.90103803959882    1.19758184058110
N         2.70729720703536   -0.77822281997357   -0.24180113390516
C         2.42833236195625   -2.01071472521891   -0.97439430436557
H         2.49688936303878    1.39194858888285   -2.74999279728986
H         1.17060195264856    0.24226893263102   -2.79943034832506
H         2.78423200030421   -0.28888722046491   -2.82844944694090
H         1.07684993806871    0.61327996892241   -0.52327538378097
H         2.16363842797559    2.55689745553852   -0.87156220266073
H         4.69638852157444    2.57223834535460   -1.04602985048971
H         4.42875104057633    0.85613021659109   -1.26553248642000
H         5.52657909704243    2.49847576065666    1.04000462363331
H         5.96281593114725    0.85431663775564    0.55565781383197
H         4.98436203690901    1.07528875476535    2.78625737384900
H         2.84760927644053   -1.58902953630829    3.85116783370793
H         4.25294348569354   -0.60266072735677    4.18516781210312
H         4.29392518341761   -3.23705405487886    2.65737775282950
H         5.66716930314030   -2.47906735219183    3.54489538856753
H         4.86366138827785   -2.19963449473513    0.69130110923402
H         6.04122687195756   -1.14842073626195    1.63850062997450
H         1.72460417153628   -0.30292424895672    1.65427328480084
H         2.34593647008030   -1.95540385102384    1.43234340932591
H         2.56618604756189   -2.95588913238490   -0.43187218031026
H         2.91780100205449   -1.89742099907445   -1.94679734517998
H         1.37790888369459   -2.00586196598558   -1.27226954038281
