37
 energy: -49.579519872244 gnorm: 0.132367520278 xtb: 6.4.1 (79825abcba525fcdf90b791dcacef51065a7a4e7)
C         1.91255513959045    0.51974056625165   -2.36984323095687
C         2.08629475928751    0.47651766005710   -0.84515939572936
C         2.65108612605927    1.84078816115257   -0.35679598437699
C         4.18641496221182    1.89855627491659   -0.50277567409955
C         5.00050898232260    0.97856143643133    0.42310932142397
C         4.31255212728332    0.80237618993381    1.76928814905919
O         3.15961584456522    1.67193666942966    2.01700936635351
C         2.22673119364181    2.05980677716986    1.07060974319351
O         1.14276647453004    2.56228758168603    1.36903844794082
C         3.85952594541682   -0.69744326665233    1.97227785854804
C         3.78512997330721   -1.08973387933770    3.57763701925092
C         4.81363679150598   -2.18582655287628    3.26660763065489
C         5.09092549328346   -1.76688288943484    1.85512451680948
C         2.57406061348349   -0.97003062358081    1.11085657232974
N         2.84600456445696   -0.63112877734868   -0.27871188028750
C         2.86270096751872   -1.84939330748399   -1.08438130737594
H         1.24747507043504   -0.29670372474373   -2.66833465717378
H         2.86371450736320    0.36332834022671   -2.89699077872773
H         1.38555967452498    1.43300967984192   -2.65679240909005
H         1.05866863114924    0.38413948572911   -0.48195749185940
H         2.32863375888080    2.68683968039414   -0.97900539527515
H         4.57548775928125    2.90642046757231   -0.29409756365710
H         4.33083234340727    1.63859875127977   -1.55289433048650
H         6.01351653279734    1.40900803678360    0.45338605823467
H         5.04078343373542    0.00377299200777   -0.07061682696194
H         4.84383732374465    1.15930338524931    2.65900424179863
H         2.78514767634570   -1.47059223716868    3.80191620421223
H         4.06351272861407   -0.34482539818765    4.33611573199175
H         4.27338754934562   -3.13054130707655    3.35402761053457
H         5.66837627117250   -2.24632445251652    3.94841760179126
H         4.81517257135266   -2.59983837013942    1.17076457116448
H         6.02930740382071   -1.36337590649041    1.47541559633221
H         1.67055857153341   -0.48673084804608    1.50953562117490
H         2.32361965844185   -2.03267334363030    1.19664532529603
H         1.87769683765264   -2.18323383645756   -1.43794308282343
H         3.45372051931577   -2.56744870480807   -0.50725477562790
H         3.48895347296720   -1.61242833538740   -1.94681860752817
