37
 energy: -49.578083397365 gnorm: 0.141512746047 xtb: 6.4.1 (79825abcba525fcdf90b791dcacef51065a7a4e7)
C         2.63221140116433    0.54412744063160   -2.47685546588975
C         2.17712763824947    0.48917548647911   -1.01172969353056
C         2.60846975313321    1.79518524652380   -0.28577888502356
C         4.11587757791195    2.09054323267222   -0.43533549655917
C         4.94501664132720    1.10598054227285    0.40702270150096
C         4.30322709826856    0.72963138414378    1.73479934872599
O         3.16415740059796    1.55887480141387    2.13684276192945
C         2.27268903975087    1.98826003322157    1.16869930775921
O         1.28594987664692    2.58233478242851    1.60452862630104
C         3.88656051483663   -0.79095332044360    1.83533329593050
C         3.70542901534854   -1.17357625519033    3.43451927848705
C         4.99626663247774   -1.99903163133480    3.34316079252375
C         5.07378060251381   -1.91526850883759    1.84928572299260
C         2.54883325894665   -0.99167202995650    1.03597767759719
N         2.66646320855160   -0.73641860121240   -0.39255910016794
C         2.17589994418031   -1.93734255819071   -1.06388598888325
H         2.47485278274697    1.57038782986191   -2.82332016883884
H         2.10006206156476   -0.11763164774447   -3.17395334622484
H         3.69984549681432    0.31126101484760   -2.48428464504286
H         1.08539523184580    0.51800327276244   -1.07300050754010
H         1.98194681056139    2.55936454559686   -0.76580207813624
H         4.27270115594509    3.09304905684374   -0.00977366212542
H         4.42656190023294    2.15780925354177   -1.47943032622088
H         5.87608587107617    1.63265144326061    0.66800760565513
H         5.14887425345779    0.16984786232527   -0.11994763345911
H         4.86825241830083    1.02176520994767    2.62735743361146
H         2.83695659681433   -1.82324358296924    3.57238464718115
H         3.61264276598400   -0.31872394187298    4.11883923438515
H         5.04875744963440   -3.02300324939246    3.71829317243824
H         5.88039675572270   -1.50322579542399    3.75740095281338
H         4.63869142638661   -2.86235094467579    1.45949692021481
H         6.03261041975307   -1.65514839422300    1.40146850204573
H         1.78628345331792   -0.35092133661632    1.50159119216364
H         2.04315616839694   -1.92179527991502    1.31606935046092
H         2.67957403542441   -2.80084733076796   -0.60851747461590
H         2.35800424531328   -2.03320895481358   -2.13888847740119
H         1.08611788488681   -1.98744653718132   -1.01908256314702
