37
 energy: -49.589702469159 gnorm: 0.137737343880 xtb: 6.4.1 (79825abcba525fcdf90b791dcacef51065a7a4e7)
C         2.59167921169444    0.45502858676346   -2.48589184884137
C         2.17460344509071    0.40943030184206   -1.00917824768013
C         2.48359355139158    1.74451989975004   -0.27379878658699
C         3.98741483388327    2.06843540044251   -0.39822612098035
C         4.88805371649481    1.06398770832969    0.34092004288245
C         4.32368138211941    0.77798902028787    1.72519311949871
O         3.15939495358688    1.57819958711866    2.11360460650747
C         2.16668235581304    1.86578508079596    1.19262386595957
O         1.07526553540190    2.24135686948083    1.62190385766418
C         3.79498991872758   -0.69711973691528    1.92627882543959
C         3.80915472168830   -1.15702298960836    3.51527004361426
C         5.19209192403872   -1.77507026788732    3.26730439385252
C         5.04352336378936   -1.74239330784626    1.77681890305767
C         2.46827568620850   -0.91422358518356    1.11297267424453
N         2.74218633692395   -0.73410609104312   -0.30556146459748
C         2.40406080675829   -1.94098152257316   -1.05567697797569
H         2.42686203485658    1.44883081988931   -2.91391325567006
H         2.00006780368522   -0.30045819147245   -3.02095178390174
H         3.65441962423985    0.22470994352809   -2.59387638088040
H         1.08391024176652    0.34691841183295   -0.95490667633767
H         1.93328086630144    2.58748001578143   -0.71368223267127
H         4.06714873880822    2.99896250787334    0.18356099049802
H         4.31592256286165    2.19518693685214   -1.43127994203315
H         5.89571041097536    1.50567020829458    0.38484974194494
H         4.91064352706909    0.15383801149027   -0.26465182213826
H         5.05431103941138    1.08904450274194    2.48062710319479
H         3.04981653767869   -1.90433525494091    3.76072622348616
H         3.77628474857826   -0.23056275138811    4.10541118208169
H         5.34023634665119   -2.73432331956575    3.76718865689025
H         5.99699070462402   -1.12868070907421    3.63257539380577
H         4.73743268687002   -2.71160827350583    1.32390181330966
H         5.85959870703701   -1.33216981952060    1.18243259136322
H         1.70665014761269   -0.23282133432748    1.51850579475593
H         2.22290791815927   -1.97863050277761    1.19121914993208
H         1.37455735523089   -1.84638792058234   -1.42697639922011
H         2.40482463484180   -2.83844041037325   -0.42913914364690
H         3.06384726000168   -2.06767930669899   -1.91635822029465
