37
 energy: -49.585560399114 gnorm: 0.138172015088 xtb: 6.4.1 (79825abcba525fcdf90b791dcacef51065a7a4e7)
C         2.25124184882470    0.55563022989736   -2.36318041802199
C         2.11806350981787    0.44203567607502   -0.83803311658598
C         2.65130520418778    1.76048719548123   -0.20869934362882
C         4.14113358038527    2.03474967592440   -0.50378131519806
C         4.96556054264403    1.03189270240223    0.32144634184548
C         4.38125000190985    0.79982960953703    1.70753841789668
O         3.33185257955287    1.71570324735715    2.16218538002025
C         2.30941116765937    1.91038335062751    1.24944090633891
O         1.17391484308903    2.17227831921495    1.64766860126411
C         3.75864139476516   -0.64136663781224    1.88419590572810
C         3.61038333360723   -1.04928097936850    3.48051359824227
C         4.94030993415465   -1.80229964852112    3.33823630817833
C         4.91555318020581   -1.79609284678697    1.84022563395978
C         2.49404598214124   -0.98257254655719    1.01635455935774
N         2.79074825140321   -0.77234567103206   -0.39342588163400
C         2.67556694606276   -1.96635048497666   -1.22687427756309
H         1.37140727976741    0.18817096595083   -2.90065109592766
H         3.19282288389804    0.09123478461351   -2.68693262915738
H         2.29440215273061    1.59376023474143   -2.70162953708033
H         1.05099603333280    0.44339455864493   -0.59755450556577
H         2.06994677311075    2.53889980489155   -0.72155355916638
H         4.37623350356061    3.09898216068764   -0.35261362355690
H         4.15544285219561    1.88853717659878   -1.58526207618278
H         6.00797954981220    1.38014438625609    0.38829422687233
H         5.00616599315665    0.12531720699647   -0.28853080842681
H         5.17138104970258    0.80631783627640    2.46708205869723
H         2.68445322459429   -1.58170644268448    3.71395608718162
H         3.62461505511183   -0.18949148815657    4.16479063114588
H         4.89655185510319   -2.83435723693078    3.69170459350175
H         5.76077233145542   -1.30938273859589    3.87019381281730
H         4.50923712040538   -2.76656998410917    1.47789369855909
H         5.81315554594342   -1.44952006012099    1.32860598720905
H         1.66358930064605   -0.43553130270925    1.48531850316800
H         2.27910046424828   -2.04365667413905    1.18124493616707
H         1.68966542413862   -2.44943238269317   -1.26318723271196
H         3.37571989448597   -2.64266337387841   -0.72650498973309
H         2.97367456605861   -1.76410585465082   -2.25758842257193
