37
 energy: -49.579298801504 gnorm: 0.150434458469 xtb: 6.4.1 (79825abcba525fcdf90b791dcacef51065a7a4e7)
C         2.27880199590174    0.59771607909174   -2.46018380437963
C         2.18090787299060    0.50070049650444   -0.93122363150704
C         2.94524500147936    1.66239248319532   -0.23481670408516
C         4.46587966958230    1.44742765986279   -0.38759817259131
C         5.09290796647601    1.54989461457916    1.01337957441002
C         4.24794970746724    0.89099915972858    2.09431696740491
O         3.03098777353837    1.69143875469276    2.25263130011818
C         2.31345102046386    1.95755929174299    1.09906720620617
O         1.15547930961974    2.36805973917262    1.18342993520022
C         3.85523644221569   -0.62299008100898    1.87181123218989
C         3.66557401662240   -1.34029079131350    3.35036207298967
C         4.87675914645536   -2.21655186488406    3.00225028034361
C         5.08215444181798   -1.67437536223422    1.62074935266869
C         2.57625602974075   -0.90941528902252    1.00524252782130
N         2.74233534491827   -0.74857213436159   -0.43220507386535
C         2.06712982277893   -1.82676609268926   -1.14994163289087
H         2.25994421912052    1.66898463959323   -2.68387549178841
H         1.37221223537899    0.15396229194662   -2.89403983341581
H         3.26239030445411    0.26305630240965   -2.79883023066222
H         1.12536665720591    0.58351616390798   -0.65656180069138
H         2.65901279661363    2.58382491130828   -0.76013248860849
H         5.04352590281750    2.09694035376064   -1.06226290731712
H         4.55801174280849    0.41199819513698   -0.72013537351726
H         5.22657960760257    2.61684159150045    1.25032113754090
H         6.02247057528531    0.98386330499019    1.11884032244799
H         4.75549205393232    1.15961399729666    3.02785997239461
H         2.80511128749587   -2.00177023769014    3.48214852118985
H         3.86027904463006   -0.59697468380841    4.13601255879159
H         4.69807626204396   -3.29345627829933    3.02087218359820
H         5.73826097791547   -1.91209438662398    3.60576055471782
H         4.84262268489848   -2.27273447119952    0.71366944570718
H         5.91552803554260   -0.99122611309364    1.45841351105061
H         1.75494699434922   -0.34854029750256    1.47397519742337
H         2.41110051496242   -1.97839148427132    1.17642514947898
H         2.61148875682102   -2.76121174524965   -0.95713799466906
H         2.18979456070526   -1.69012204547084   -2.22895250746399
H         0.99324863469704   -1.91403935270168   -0.97300868643721
