37
 energy: -49.577243693126 gnorm: 0.146008340722 xtb: 6.4.1 (79825abcba525fcdf90b791dcacef51065a7a4e7)
C         1.91074992787997    0.50831852934222   -2.30271258050484
C         1.99647835852955    0.44491705971342   -0.77126054016823
C         2.66672072636494    1.77837501091662   -0.33378237966395
C         4.18259220474363    1.96719118911713   -0.55370037354104
C         4.99664978760059    0.97090762186447    0.28958598381245
C         4.41559540816436    0.85125011725117    1.69122116040697
O         3.33027078650791    1.75980075826744    2.06986278293679
C         2.32578784281129    1.89805932530375    1.12737256700082
O         1.18358161037665    2.20679951903371    1.46879688752883
C         3.83990622161441   -0.60289829284479    1.91467192811655
C         3.57528773646254   -1.08540264921549    3.47472683037631
C         4.66877874056265   -2.15218575874445    3.32560969860347
C         5.10506635199082   -1.63619539178730    1.98841320929566
C         2.55564136319003   -1.01817370423604    1.11032022042010
N         2.77523192518182   -0.68989724706551   -0.29100878452913
C         2.94225133128244   -1.83281212077466   -1.18510080377882
H         1.16243684182915    1.28400144809952   -2.49337837356637
H         1.55549898824751   -0.45528306889775   -2.69299733952811
H         2.89260398080579    0.75610953900880   -2.71342751432015
H         1.00921621672420    0.47711225768710   -0.30142894670821
H         2.11192013392343    2.58315939005864   -0.83522195305655
H         4.40767184474183    2.98559606712620   -0.20312216275501
H         4.55106742901655    1.98911848367904   -1.58079757176610
H         6.01098490755318    1.39561304887068    0.34557538071244
H         4.98454097385285   -0.04041978814248   -0.12595015666951
H         5.21862705577056    1.10295968005492    2.39338791364488
H         2.52803685545810   -1.39422228384729    3.53142652268570
H         3.61889627078351   -0.31487196053641    4.25706710698328
H         4.28701728579930   -3.17248327465209    3.25316227013474
H         5.48395342255617   -1.97408114654382    4.03474536524804
H         5.21233883026703   -2.38363817275255    1.17108528779236
H         6.05929134305426   -1.11289312880436    1.93213922491747
H         1.68396606651653   -0.44598248597658    1.45905933356747
H         2.41996830721403   -2.10482913352907    1.10240090261890
H         3.78912844490146   -2.46459161133986   -0.88453070188900
H         2.98432655504310   -1.47036405963931   -2.21701347743588
H         2.11078052235378   -2.53720386233525   -1.25315408883403
