37
 energy: -49.561955378628 gnorm: 0.151728393266 xtb: 6.4.1 (79825abcba525fcdf90b791dcacef51065a7a4e7)
C         0.87373723876987    0.60371727863705   -1.17117846032283
C         2.18539633391938    0.38816033366445   -0.40319405224389
C         2.93909514495692    1.74785837124028   -0.35981862240963
C         4.44508530413788    1.50928480177177   -0.59847770627266
C         5.24373698121851    1.01681235028614    0.62055018038046
C         4.42095209152868    0.73102827021822    1.86869913256656
O         3.34846970230915    1.70600275915598    2.08310429034093
C         2.72703875209892    2.32693692137045    1.01321943516510
O         2.00390200408283    3.29123661836418    1.26565857866575
C         3.92167872002872   -0.76134257608111    1.72923136119570
C         2.75028432155691   -1.25845408190681    2.78626494698392
C         3.72922735888502   -2.15382093964616    3.55825809113849
C         4.85774803743844   -1.70642562028055    2.68021145346195
C         3.80115798707024   -1.42073367193723    0.30815793508548
N         2.97866576578109   -0.79393106133763   -0.71669981221341
C         2.83903882325885   -1.53915552487369   -1.96517696559011
H         0.12818968559685    1.02683853525572   -0.49063665349484
H         0.28458652297448   -0.22801278686503   -1.58127598661982
H         0.90640386460443    1.30580194774709   -2.00791887355660
H         1.81063041802841    0.26714226330688    0.61728129357008
H         2.50279707165512    2.43457096025158   -1.09805507675310
H         4.90877958159147    2.40966395890831   -1.02861654156068
H         4.64690087659850    0.72386581036854   -1.32893712825671
H         5.93481273860933    1.82774725867398    0.89837051524083
H         5.87675729173401    0.15393043389156    0.39622867494325
H         5.06836398824121    0.85537061326701    2.74428608730850
H         2.02685979086027   -1.88403951849632    2.25653044833410
H         2.15602326896081   -0.45061501802047    3.23562605370774
H         3.46554697400772   -3.20745373937970    3.66928978156767
H         3.87947898008900   -1.76729446526973    4.57173041115237
H         5.41169940359998   -2.46282062903738    2.08087222034404
H         5.71637426021728   -1.20329447516275    3.12425809716983
H         3.47075362518669   -2.45222937994822    0.49707363579267
H         4.82297934569103   -1.43203725547255   -0.08559738778644
H         2.16983492438264   -1.03297325147553   -2.67414395584742
H         2.36286995332934   -2.50700851775287   -1.77941778886938
H         3.80850520049623   -1.60837164487483   -2.46265736651727
