37
 energy: -49.537167810046 gnorm: 0.159085888649 xtb: 6.4.1 (79825abcba525fcdf90b791dcacef51065a7a4e7)
C         0.83375718051685    0.20929500658368   -1.14902007113741
C         2.09478834550600    0.27659606107113   -0.27610228931111
C         2.80715067817937    1.65790765450858   -0.21917852160669
C         4.27549852211420    1.87794739074840   -0.64038988751202
C         5.28893427579469    1.16936752208712    0.27463205099319
C         4.67815500798724    0.65353828584738    1.56977380758474
O         3.79197342739441    1.74627424411693    1.97888704374038
C         2.80308328545145    2.26258219193117    1.15918485317787
O         2.21203973184325    3.20538155808055    1.68674819240123
C         3.96377272630325   -0.74891393757992    1.70645433458593
C         2.72906683548805   -0.92222765329093    2.79368402669556
C         3.55449994392727   -2.00115090110976    3.50822549250765
C         4.74360722156759   -1.86955235259305    2.60634240860258
C         3.49333244498086   -1.55927940640567    0.44519888338609
N         3.04840424405594   -0.74932418049169   -0.67984328074755
C         3.13391235477910   -1.46440679285645   -1.95062873256526
H         0.21737169855682    1.06726631940714   -0.86272637902965
H         0.23792431687353   -0.67909400041459   -0.89841751668579
H         1.01413747212586    0.14626931886088   -2.22494536574511
H         1.72601560936702    0.00340275944459    0.71679091093561
H         2.14835522189023    2.33414384482135   -0.78097602931390
H         4.41927275434028    2.96711788470460   -0.57914411590831
H         4.44125460333936    1.56575648257620   -1.67298140604832
H         5.94120345826855    2.00867466845477    0.56184919835331
H         5.81905756779104    0.47783838021018   -0.38594101918115
H         5.48003818571762    0.66093869293266    2.31689113023768
H         1.96485305924803   -1.58822872903665    2.38412487356590
H         2.21963550099611   -0.11026447962800    3.33115129737869
H         3.10771799591131   -2.98545534704138    3.66161423971266
H         3.87947955442921   -1.59415142906823    4.47147213413361
H         5.10849056854609   -2.71554460518166    1.98235499790156
H         5.69324675999400   -1.54249773909705    3.02916315651218
H         2.56600352983184   -2.11093022231619    0.65634351389665
H         4.14219590878865   -2.37504487647796    0.10935246755461
H         2.28453365175654   -2.12241640443441   -2.17925010252210
H         4.05911098806753   -2.04707223441813   -2.00054030108639
H         3.04333187594749   -0.73946520276239   -2.76204573849812
