37
 energy: -49.575478860073 gnorm: 0.149028464549 xtb: 6.4.1 (79825abcba525fcdf90b791dcacef51065a7a4e7)
C         2.43950216546507    0.33802552303623   -2.39921787201889
C         2.14170996626117    0.38329530337159   -0.89389898646600
C         2.78078899625660    1.63954066637757   -0.23651955997452
C         4.30792760775348    1.47598213003757   -0.38810493329328
C         5.03717481890698    1.63176990744545    0.95738058443455
C         4.21637290512527    0.99282447244970    2.06848645908312
O         2.97482134269637    1.74755276999462    2.25742623444608
C         2.24359328169057    2.02589065087279    1.11540049094334
O         1.23160269949995    2.72618395915388    1.16001574530098
C         3.78205092373650   -0.52153552584448    1.95027417844372
C         3.92008766919104   -1.41848865365855    3.33339588775697
C         5.04969433448095   -2.20898171965977    2.65878918732647
C         4.93694219035323   -1.50563584110250    1.34073041435072
C         2.44677334407195   -0.86515542304946    1.19679506352605
N         2.68773106853866   -0.79818064409199   -0.23748602212964
C         2.12598484149521   -1.99812360473954   -0.85240760157236
H         2.51370630770711    1.37571837847974   -2.73936078104085
H         1.70014452495930   -0.17844907523800   -3.02663937087832
H         3.44721540516603   -0.06918430038162   -2.51243763990731
H         1.07957329904120    0.53866449902949   -0.68368259746915
H         2.43020149609359    2.40563621332924   -0.94157933204425
H         4.68343929816137    2.23947368751654   -1.08580547268144
H         4.61649348573080    0.55691458122558   -0.88938869948907
H         5.26271331310246    2.66570702449596    1.26150503509218
H         6.03385147077041    1.21806349941004    0.78107770008649
H         4.77214925745557    1.17108800917456    2.99616661120939
H         3.02043124985340   -2.03490879261695    3.41061878404224
H         4.19434456949212   -0.88989264174599    4.25700022411479
H         5.01016359408871   -3.29822057979588    2.59559512693027
H         5.97561203939986   -1.96066366353387    3.18805184358191
H         4.35601899558702   -2.22482484582165    0.72145788618913
H         5.88199599765427   -1.09467544492531    0.98641104790839
H         1.71574769023467   -0.10545541191320    1.50871972653412
H         2.07084375231180   -1.84311224056600    1.51549137548940
H         2.56975675842271   -2.91176728369913   -0.43406529712896
H         2.49720018765767   -2.00957264299619   -1.88199528055185
H         1.04478256550421   -2.13087359815176   -0.77809895731427
