37
 energy: -49.576475884139 gnorm: 0.146067819994 xtb: 6.4.1 (79825abcba525fcdf90b791dcacef51065a7a4e7)
C         2.48963679091500    0.32989924079093   -2.38160752647756
C         2.12557282848402    0.49324003836528   -0.89921361755066
C         2.91363025055502    1.68240253913489   -0.27987512830098
C         4.43708787926866    1.44735613447798   -0.35545226012754
C         4.98568489081386    1.62700389222658    1.07044065655154
C         4.14532481277277    0.97810412361894    2.16096683840290
O         2.90421425137914    1.74981213221442    2.26524838911655
C         2.31229405746512    2.04944191182813    1.05024150563920
O         1.19829863305892    2.56453643028619    0.94915731735321
C         3.82349201728152   -0.54903631509013    1.91568811647356
C         3.95893622755885   -1.52988610547965    3.24090254418554
C         5.27216093112870   -2.10287662592866    2.69035060008510
C         4.98388092935764   -1.54191503104009    1.33134209347112
C         2.44936554746676   -0.86401415852893    1.22190356190197
N         2.48286200477752   -0.75110374518368   -0.22924690299740
C         1.88693553730008   -1.93128200352514   -0.85021500270047
H         2.69406243550838    1.29811370801148   -2.84934763845618
H         1.69039500286275   -0.09885613453388   -3.00163563851578
H         3.44150786188461   -0.20681405753620   -2.37941003056078
H         1.06175032428047    0.72762510360654   -0.80016753602870
H         2.73452574728023    2.52351261189797   -0.96352612534419
H         4.85697374542612    2.25190324036785   -0.97763731714655
H         4.73932972212128    0.50432630511454   -0.81428565563761
H         5.07824992715454    2.67312739313777    1.40126175481525
H         5.95063787565825    1.11537820164069    1.12244975328627
H         4.56744565803794    1.07482843393647    3.16780053867539
H         3.11109440470485   -2.16651209601478    3.50771787760900
H         4.11798749186239   -0.86142698887073    4.09853922393734
H         5.25365114876911   -3.19445500549591    2.70090949617299
H         6.20011775258409   -1.77696596075541    3.17178884572538
H         4.52963154165215   -2.28465909667930    0.63838337433724
H         5.78348736157489   -1.17880346685235    0.68610035833317
H         1.78002833647929   -0.09193094486528    1.62775428860270
H         2.18757064065472   -1.87248201732300    1.55916596739495
H         2.16773974146384   -2.85610003409699   -0.32815258068057
H         2.20045017787870   -2.14744525925556   -1.87635568975784
H         0.79560972545047   -1.89742638633653   -0.85232714279842
