37
 energy: -49.577068602814 gnorm: 0.145288925889 xtb: 6.4.1 (79825abcba525fcdf90b791dcacef51065a7a4e7)
C         1.94032695706325    0.51274729049631   -2.34407815433361
C         2.01880405156054    0.41366180988606   -0.81413113474856
C         2.56487539711971    1.76232650066426   -0.26492104903200
C         4.07372636267687    2.02631027100461   -0.45350313918260
C         4.92051851733402    0.97553080391939    0.28487899312752
C         4.48193628717975    0.83155303938114    1.73520287540970
O         3.45812797231142    1.82525968927649    2.06855995047527
C         2.39318812246200    2.02557622313905    1.20706958682579
O         1.33089397326934    2.42097758073786    1.68843751110315
C         3.93890043487708   -0.64514188082019    1.87796177283315
C         3.56229069030884   -0.97577976287701    3.45449227150105
C         4.53387463831939   -2.15851027073492    3.33978445573089
C         5.12692532560247   -1.75927614430229    2.02312565620528
C         2.71960363681157   -1.05858519482785    0.97732225902318
N         2.83169761094404   -0.73642047285716   -0.43807636673407
C         2.84785617011428   -1.93963770452376   -1.26606044427310
H         1.86075651329692   -0.48148722025256   -2.79482885091628
H         2.88321871282357    0.88414393460211   -2.76842840468284
H         1.12551243270657    1.13766989375269   -2.71780740169324
H         0.98988256120676    0.24771190384115   -0.48209802344885
H         1.90308179089854    2.45291693207419   -0.80532583824862
H         4.15739918586302    3.00509467591974    0.04217254762867
H         4.27328984500896    2.10010322543952   -1.52397616484595
H         5.99919155319870    1.17226916291814    0.18416275453346
H         4.81044640043729   -0.00554308964175   -0.18520419341526
H         5.26014668383917    1.13633378152017    2.44425363168643
H         2.53398426121259   -1.12060934900212    3.79644125480994
H         4.03398213405219   -0.17443139334661    4.04017438911309
H         3.98095245712194   -3.09554823768303    3.24904100570553
H         5.19232183215963   -2.26810336324525    4.20785188311962
H         5.08546353362353   -2.50729908434350    1.20035859277332
H         6.02927050781768   -1.15668402095110    2.12418638917304
H         1.81923716923486   -0.52375533322246    1.31219065356007
H         2.49181963297240   -2.12950274422555    1.00055953275740
H         1.79686613967470   -2.21036459880749   -1.43581163500872
H         3.41544022497637   -2.74113572089386   -0.78291247474136
H         3.31784264434202   -1.73262640175859   -2.22959649598404
