37
 energy: -49.576954016137 gnorm: 0.139431271611 xtb: 6.4.1 (79825abcba525fcdf90b791dcacef51065a7a4e7)
C         2.38823561021633    0.39749413346276   -2.48157215572005
C         2.12223150248906    0.36864317357289   -0.96990952440859
C         2.52060095468345    1.68577183975050   -0.24520548339527
C         3.98019785943742    2.15829850386852   -0.41306642844369
C         5.01007488619384    1.30752389984451    0.34978250715412
C         4.40279457434030    0.87659875248846    1.67720010203315
O         3.30110766514876    1.75191312443670    2.08570228367726
C         2.23616779500553    1.91078911747752    1.21561564931359
O         1.14765124770728    2.35657136440408    1.58021966974657
C         3.91932153825376   -0.61133532870303    1.89674953495107
C         3.77615830776208   -1.15411856065520    3.45286501541223
C         4.62481147698529   -2.39606452216700    3.14734459046601
C         5.16701914665105   -1.66654669463640    1.95633578401696
C         2.59737170732471   -0.87497307354095    1.08946060505346
N         2.81622193402459   -0.75035656075060   -0.34451421227593
C         2.52378552021155   -2.01388495701860   -1.01647210436169
H         1.88154814396101    1.31849309429411   -2.78659451653871
H         1.83900922548330   -0.40416825833594   -2.99415508029299
H         3.46434978326914    0.48120158918471   -2.65214728118008
H         1.05482900660793    0.16162541672231   -0.85049275917241
H         1.82260991872413    2.38483591602422   -0.72587293957369
H         3.97383560906475    3.15039250284610    0.06277331130056
H         4.28353160256309    2.29471493033895   -1.45256759692564
H         5.95932882418342    1.83434028692510    0.53353973358779
H         5.10884450359781    0.40637261730864   -0.26158561921079
H         5.12414880603145    1.05928034821633    2.48189335064718
H         2.75956824251499   -1.36752135425155    3.79392618443302
H         4.22444483661547   -0.44306221661922    4.16075881581648
H         4.03801190962870   -3.29018224009180    2.92776035610555
H         5.43382843855232   -2.70854272028682    3.81589028177267
H         5.39895712141328   -2.21658063619524    1.01725619299626
H         6.03148726619982   -1.01545448352840    2.08412925798503
H         1.89921107181453   -0.09038069438795    1.41476990199473
H         2.13233523205680   -1.85685243885616    1.22709752006179
H         3.17243118987846   -2.72591432467190   -0.48830400079010
H         2.83548544806259   -1.92516572533466   -2.06191686721567
H         1.49927777441388   -2.39069167299647   -1.03978029975047
