37
 energy: -49.575575851712 gnorm: 0.128169405229 xtb: 6.4.1 (79825abcba525fcdf90b791dcacef51065a7a4e7)
C         1.03018956401278    0.66021998871775   -1.38020946826814
C         2.26339827338730    0.43642170517671   -0.49374170782989
C         3.01826101716638    1.78224971308419   -0.29970216657493
C         4.54283174347206    1.63984107548730   -0.49279734887222
C         5.34030147364929    1.12129921654851    0.71615218121094
C         4.42067652869483    0.64582988850694    1.83183232326183
O         3.35925757862938    1.59736349984293    2.17056066303201
C         2.67811169673494    2.17512617934792    1.11291240493268
O         1.82047324995444    3.03125117030611    1.33207554748741
C         3.92209031433185   -0.84117298376243    1.64175304722617
C         2.70985004509072   -1.20497529724196    2.70698827103640
C         3.74940319247557   -1.89716599679918    3.59928081767544
C         4.81761391633496   -1.86502400771416    2.54924265911711
C         3.86494109556608   -1.31074815429924    0.14341908458212
N         3.14900858993095   -0.63612449508845   -0.92990843968088
C         2.48665022519834   -1.65854952462226   -1.73581098572740
H         0.50042127617835    1.50900100518478   -0.93644572396010
H         0.37061309435110   -0.19748324956361   -1.18953302061563
H         1.19336182875168    0.71598790867557   -2.45927817473548
H         1.85207614326742    0.12226577287888    0.46988942977219
H         2.59703032678507    2.51229972722566   -1.00434033036663
H         4.96988337135602    2.63157226978937   -0.70448244488488
H         4.78748387639327    1.10537663245538   -1.41240409746938
H         6.01083998250491    1.91433430590917    1.08201924608372
H         5.92021881539301    0.25700879472663    0.38104325418349
H         4.95633762962503    0.61740757099292    2.78761214062761
H         1.81480493104835   -1.71903422567056    2.34649349972161
H         2.26494406981655   -0.29463186460157    3.13243987104813
H         3.41305308413068   -2.87873437433862    3.93897124361478
H         4.05069153278146   -1.34164068740920    4.49355223935670
H         5.02104420116628   -2.86281329208617    2.10064964176133
H         5.80406251026423   -1.52073984942594    2.85899246748257
H         3.59969786550531   -2.37302428134741    0.24369393738759
H         4.90745121977043   -1.44399850941556   -0.16432578351118
H         1.63900469080686   -2.08722817527391   -1.18406808667583
H         3.25674425141250   -2.41185499196619   -1.92937948079829
H         2.19271395504892   -1.16242591719146   -2.66296012713613
