37
 energy: -49.583036384132 gnorm: 0.153642480759 xtb: 6.4.1 (79825abcba525fcdf90b791dcacef51065a7a4e7)
C         2.09814499343232    0.61203649928743   -2.44367185714419
C         2.12905216555553    0.46735851960929   -0.91565762010512
C         2.70853295263855    1.75401465493457   -0.26186857628457
C         4.21523862100849    2.06912518343956   -0.37333718699128
C         5.09832760700911    1.10903828008085    0.44200911416915
C         4.43263061400643    0.79689808801946    1.77465285653204
O         3.35795026854790    1.72541418417632    2.13476859212249
C         2.34158590411799    1.79353676465835    1.19735082555888
O         1.27285645922524    2.19792725711142    1.65649338780275
C         3.83193316450292   -0.66274702016903    1.84169526066255
C         3.47879602536252   -1.13057902960613    3.38863808721862
C         4.63055846285558   -2.14515949401665    3.38125770221616
C         5.04213902154114   -1.75156377946610    1.99548310066349
C         2.62312623929800   -0.92827116280271    0.87367957804263
N         2.93366982639221   -0.68459161976241   -0.52770952975821
C         2.56894361425362   -1.88997906835719   -1.26768679948364
H         1.79196734386942    1.64693656709919   -2.62600947857664
H         1.32594327163431   -0.03391575914709   -2.88356235263137
H         3.06417453794811    0.45407445327949   -2.92942841538213
H         1.08498974336601    0.37731898917442   -0.60214310756336
H         2.26097107835654    2.69734066408870   -0.60355216492372
H         4.37943888464783    3.08746712662922    0.00971945259769
H         4.50995416699686    2.01883696050931   -1.42300252578644
H         6.07364408232000    1.57246796044461    0.65735991352009
H         5.16691144778316    0.14011473535787   -0.06007003778080
H         5.15214978683270    0.88609001890945    2.59659730070720
H         2.44819738110548   -1.49392968347904    3.42271995407667
H         3.37211174362839   -0.26973328228971    4.06335182722499
H         4.34608217126926   -3.19737836819326    3.44375682118726
H         5.28507204682906   -1.92536517843961    4.23120289760514
H         5.00002922552487   -2.67201282506409    1.37162145494443
H         6.06304689018545   -1.39567935888673    1.85891532575154
H         1.79418564497936   -0.30367655753671    1.23641732458544
H         2.32924424276904   -1.96769512443226    1.05401574895652
H         3.15418242286348   -2.74854253494137   -0.91124202216451
H         2.87506643310250   -1.81382761215093   -2.31576717470300
H         1.52975450947592   -2.20871375823816   -1.16455147361901
