37
 energy: -49.578254884696 gnorm: 0.131020899625 xtb: 6.4.1 (79825abcba525fcdf90b791dcacef51065a7a4e7)
C         2.28017773004015    0.40097889990467   -2.38982864168598
C         2.08573304248501    0.42203257034193   -0.86717881331543
C         2.74410138199735    1.71113148045001   -0.29841062390161
C         4.26866892764079    1.60247884397214   -0.51235044893405
C         5.05970070741069    1.63164732704629    0.80667210930250
C         4.29756675529729    1.01439414929159    1.97057659077814
O         3.09454203527014    1.81691827758150    2.20605448589478
C         2.27949544946631    2.00438392699888    1.10290221798553
O         1.13088717909928    2.41067848342876    1.28220627064653
C         3.95332019024928   -0.52588461100835    1.90035183325723
C         3.81691349442509   -1.25112548107747    3.38090024581321
C         4.63149336303364   -2.43222178942793    2.83550511421998
C         5.13663774326713   -1.63152085053615    1.67430119013346
C         2.63565800243323   -0.88068028533932    1.12146932031735
N         2.76302929467646   -0.74837280454516   -0.32282280156482
C         2.38910673974481   -1.98635289486435   -1.00189399392881
H         1.85759010127874    1.36253080559905   -2.69780192683682
H         1.80045351537100   -0.40063476847946   -2.96804458040836
H         3.32459048051786    0.52285018283668   -2.68727430830187
H         1.01403787543075    0.41606914022193   -0.64832106284269
H         2.24218754403270    2.44005095552635   -0.94931933384043
H         4.46284672837783    2.55771319055432   -1.02277846558917
H         4.51163642016112    0.68758519518979   -1.05559982188018
H         5.27165742861284    2.65658331573374    1.14867477132470
H         5.99167795377672    1.08201537579302    0.64880135879558
H         4.99726788089550    1.22928321263921    2.78635641076886
H         2.79712493046268   -1.52003160913170    3.66906618338596
H         4.21722364620822   -0.61522156065377    4.18280644348767
H         3.90053148962635   -3.21444002502087    2.62143308760546
H         5.37058359683655   -2.92202115234466    3.47811434113335
H         5.25166100736550   -2.13357679449769    0.68793791955538
H         6.06685634245702   -1.16876637150325    2.00310053069030
H         1.84536316820065   -0.33936820502503    1.66114968874209
H         2.35446663369445   -1.92943322743688    1.26408280456327
H         2.86838431630781   -2.82899430405618   -0.48523450527759
H         2.63918722966189   -1.95424376966874   -2.06698152534958
H         1.30105516625442   -2.02802691163193   -0.92096349253765
