37
 energy: -49.581465032842 gnorm: 0.147109039941 xtb: 6.4.1 (79825abcba525fcdf90b791dcacef51065a7a4e7)
C         2.16165719846115    0.61803449516773   -2.39222185775736
C         2.11992963858316    0.46952040369950   -0.86483296410046
C         2.71097686711112    1.75512721726083   -0.21938709868491
C         4.21479503924757    2.06477305412259   -0.37601471566727
C         5.02736084093813    0.93985621437382    0.28783883862025
C         4.50688977523117    0.79553436335491    1.71079505834805
O         3.49165618583315    1.79692141963965    2.04737795561917
C         2.37682070581654    1.93075428106988    1.23767438398287
O         1.23940774372122    2.10524591348110    1.67627510077615
C         3.81972603883914   -0.61620621463268    1.88598203849963
C         3.55832154400264   -1.00539043683358    3.47242713854109
C         4.64979294276424   -2.08290190332236    3.41206218996222
C         5.02294605130157   -1.71672486152135    2.00801143399640
C         2.61164712128954   -1.04892528867610    0.97930065956205
N         2.75060205226610   -0.77547219546614   -0.44394329845887
C         2.49606143019129   -1.93051583097329   -1.30105105730639
H         1.83510948494908    1.59751274296411   -2.75553832591803
H         1.43045299859609   -0.02837187374649   -2.89675400322926
H         3.15724726521892    0.37017322382832   -2.76837306232470
H         1.05386380606101    0.53680499391009   -0.62937337787681
H         2.18374137992233    2.61165467226543   -0.66132229871869
H         4.50429560009006    3.00831489265547    0.11043430670032
H         4.44099274775772    2.08265450187114   -1.44358126238609
H         6.07754506183105    1.20973046895159    0.09635451717595
H         4.77680257862843    0.05805482374166   -0.30818710461261
H         5.23522108044510    1.00909625759121    2.50147864343239
H         2.50105642872233   -1.23534385190803    3.62936896771460
H         3.69475465530753   -0.07399390229430    4.03949157129604
H         4.20118237061893   -3.07306105362791    3.51370309283587
H         5.43387007745763   -1.96559922790217    4.16742140145085
H         5.00020646696926   -2.49902672971735    1.21700591067250
H         5.96920726730278   -1.18104327272728    1.93595373648415
H         1.77627746674105   -0.44787318464597    1.36625479924570
H         2.46334348595085   -2.12859150834886    1.08708195987480
H         2.95375121488203   -2.79091983304432   -0.79418462850008
H         2.91054944133350   -1.97134286625236   -2.31323460110370
H         1.41371973105003   -2.07361806129209   -1.31522458526462
