37
 energy: -49.573173976623 gnorm: 0.156725194579 xtb: 6.4.1 (79825abcba525fcdf90b791dcacef51065a7a4e7)
C         2.12561346968182    0.39337818337060   -2.43344435074574
C         2.05498526137332    0.40790084369712   -0.89997924772708
C         2.59586773723655    1.76188269094517   -0.35877558490391
C         4.10833691580403    2.05639087553985   -0.44586048015755
C         4.98865618737158    1.10107853419134    0.37804419496845
C         4.43906297085549    0.90938315165636    1.78435977346175
O         3.32051112101569    1.78844653374354    2.13486320597022
C         2.38171903816901    1.90503862512287    1.12418770164201
O         1.26672157459943    2.26850852321550    1.49994890806163
C         3.86331898549707   -0.55352427945128    1.94029776996326
C         3.72269354904864   -1.02350094262212    3.52015572436928
C         4.75406151211684   -2.12139402903450    3.22537512749542
C         4.87431353870159   -1.82618837523179    1.76144873920897
C         2.57599108821373   -0.93329061327001    1.12339138671986
N         2.79977511360730   -0.68909843835054   -0.29435307330845
C         2.71061926769836   -1.92305325192995   -1.07085627062945
H         1.80057741194290   -0.52937369937318   -2.92425024776936
H         3.18206681300442    0.60771724888298   -2.64562014896946
H         1.51522700240891    1.21160156137731   -2.82339741070222
H         1.01958156334994    0.25468046450046   -0.58228836217495
H         2.02796901145564    2.56682990342222   -0.84506179597146
H         4.36026127214929    3.06855751640797   -0.09547892078654
H         4.34424314398461    2.18531013418844   -1.50364663850063
H         5.97837957907045    1.57067504291017    0.48900361124335
H         5.18826081762998    0.15973004899946   -0.14120629006958
H         5.20645504087027    1.16639866325068    2.52348637956008
H         2.69779018520432   -1.35005374508065    3.71574508951499
H         3.93075192264228   -0.20060423725446    4.21817312587405
H         4.23776893476084   -3.07355453678052    3.36259686630496
H         5.66645688146101   -2.11358871805518    3.83083212667516
H         4.34448120880105   -2.56438543165677    1.11915141624987
H         5.93808923915926   -1.67742967580729    1.57757523305062
H         1.72001688927822   -0.36429291259906    1.51376222110022
H         2.34758081544752   -1.99350940801393    1.27522941445277
H         1.69678638865188   -2.11730536080195   -1.44648584268825
H         3.05773278473228   -2.80068119231972   -0.51654219042837
H         3.40110538110859   -1.85653842625171   -1.91403323895208
