37
 energy: -49.588326386641 gnorm: 0.141581175003 xtb: 6.4.1 (79825abcba525fcdf90b791dcacef51065a7a4e7)
C         2.23748804623441    0.52241731281699   -2.45140235563363
C         2.15333407493361    0.51415076314775   -0.91857351996702
C         2.68076020330878    1.80961464076972   -0.23863446708272
C         4.19893993656861    2.04061450563098   -0.39242395367956
C         5.05789733299940    1.01659071203424    0.36913370015398
C         4.44193370128134    0.78757453712959    1.74196424890538
O         3.34450523251949    1.68502069938629    2.11210537539001
C         2.30916154804790    1.89488162851120    1.21744841000159
O         1.17868432607163    2.24481122844361    1.55817805194821
C         3.88432550205162   -0.68640198956079    1.85314987051561
C         3.63775810049666   -1.06629931033788    3.44421469559030
C         4.82080618245357   -2.03932689467909    3.34623887574477
C         5.01783328843826   -1.86479116201311    1.87131345551516
C         2.59407875884823   -0.98479296013462    1.00757445163781
N         2.81778810118278   -0.67388419069941   -0.39706013832010
C         2.36748102332939   -1.85042019978456   -1.13634156474454
H         2.07920017586961    1.54461405692703   -2.80926919658818
H         1.49892040762204   -0.12581975173800   -2.94268640034989
H         3.21536229947616    0.24003252735545   -2.84907722081353
H         1.09211021317629    0.43503213662672   -0.66557358977715
H         2.04545526195573    2.55858411525234   -0.73093072805229
H         4.47329556673720    3.00590435964600    0.05886189337238
H         4.50967281518712    2.01096926958293   -1.43824884936799
H         6.06051185492581    1.44625088682850    0.51927201414056
H         5.24597085639719    0.05562128659549   -0.11745252980196
H         5.16793969343427    0.92278582804124    2.55183393623162
H         2.63194553845782   -1.47433448694616    3.57523844385937
H         3.63399924222015   -0.11054207779259    3.98660713226972
H         4.50224663371823   -3.01340560517994    3.72265346429422
H         5.67782880078842   -1.70317075761821    3.93921079284774
H         4.69565507549253   -2.75317671711096    1.28379720495466
H         5.98536925209662   -1.47717552474006    1.55321655356775
H         1.84124215568722   -0.26502160183051    1.35971909366121
H         2.19885698367384   -1.99963142120476    1.12243337978495
H         2.73305952897203   -2.73207859402066   -0.59254068050285
H         2.66909559936806   -1.88061455687717   -2.18805428503572
H         1.27670278087839   -1.89841058554129   -1.12982656358826
