37
 energy: -49.584347398953 gnorm: 0.133769030245 xtb: 6.4.1 (79825abcba525fcdf90b791dcacef51065a7a4e7)
C         2.20434900791556    0.56163458659607   -2.43308375303266
C         2.08837398185841    0.36546542309644   -0.91493292810708
C         2.54171337032428    1.72612252889538   -0.31342006357069
C         4.05718859000579    1.92225084481897   -0.52963840730589
C         5.02464282184071    1.15821175800332    0.39051329365238
C         4.35806591723101    0.80298067522841    1.71187977383767
O         3.24846636507639    1.69939723636038    2.04652804147743
C         2.21050547804988    1.87417236850967    1.14737284192553
O         1.09041967627658    2.22868471836682    1.51650010918683
C         3.85319001223299   -0.67601702041440    1.94331448540527
C         3.75502934352639   -1.09169936234599    3.54149387804426
C         4.93943377496694   -2.04505193801475    3.33104266994337
C         5.10698559835109   -1.72359214700409    1.87733108168910
C         2.56195893284474   -0.97865959237715    1.10075804620340
N         2.82641773235514   -0.73665218952815   -0.31034166984458
C         2.57463018311002   -1.93685687340025   -1.10385424768402
H         2.06591139520319    1.62026097621035   -2.67423744650244
H         1.41084033845937    0.00183048619665   -2.94690943218885
H         3.16956518494248    0.16559296264565   -2.75809650433478
H         1.00121697918800    0.38712351530206   -0.79625109414718
H         2.07542491697436    2.55989326184849   -0.85593705448567
H         4.16000816504248    2.99735454739364   -0.31917560855792
H         4.36261954226946    1.72962981238703   -1.55958624073107
H         5.89460928467305    1.82347855756517    0.50437145125166
H         5.40063533014024    0.26443690916022   -0.11485408219706
H         5.00963280411333    1.05843825035203    2.55535930177224
H         2.81763033125580   -1.56178128043756    3.85072665061025
H         4.00419111048983   -0.20378324248859    4.13915510343743
H         4.65385375061630   -3.06207304019131    3.60692233268366
H         5.79902972772551   -1.77817399878693    3.95472157208889
H         4.99981103260744   -2.54712861849548    1.13672030532535
H         6.03185624605574   -1.20389739598910    1.62815442485151
H         1.83087377499793   -0.21465394771921    1.40183854238613
H         2.26617776871556   -2.00721474604208    1.33287379159243
H         1.48042428571515   -2.01119151751690   -1.16611485731434
H         2.93219018682089   -2.82615416045714   -0.57538109272871
H         2.95243657780586   -1.77386879920874   -2.11520972950834
