37
 energy: -49.576486353542 gnorm: 0.146555929156 xtb: 6.4.1 (79825abcba525fcdf90b791dcacef51065a7a4e7)
C         2.14556400156457    0.61083365115750   -2.46909517463136
C         2.01605867486868    0.45964481276582   -0.94689781970790
C         2.59491654214995    1.73969160510041   -0.27972026795789
C         4.09429683368473    2.03927523032113   -0.48945879597591
C         5.08429673400614    1.12549850938424    0.25304702710036
C         4.52263041194769    0.80255687631913    1.63027720340600
O         3.45635559648962    1.72327311995177    2.03289730297894
C         2.34885690950802    1.78382573588481    1.20454393345036
O         1.26668738293151    1.89893443566818    1.78089910353606
C         3.86638105743965   -0.62078941565065    1.82856500057512
C         3.62355441866072   -0.88317229507202    3.44374151558424
C         4.68105714034558   -1.99560897793273    3.45628426700436
C         4.93831502953502   -1.84525390541902    1.98798623084567
C         2.60814354713938   -0.98500478497620    0.96083397606029
N         2.76035390620995   -0.69427737608131   -0.45762223743606
C         2.65414617347192   -1.97860760518891   -1.14520222236557
H         1.50171099354468   -0.13063260361775   -2.95251115257532
H         3.20304969961663    0.66460294000238   -2.76215887116316
H         1.80813492167002    1.64179225871369   -2.60096820901877
H         0.99991333140138    0.49234595523077   -0.54335837701217
H         1.90977076867703    2.53415715655751   -0.60579237364189
H         4.14976478671331    3.08021305214443   -0.13720009766073
H         4.37171197576894    2.11632634627321   -1.54221111157328
H         6.04958888975200    1.65065533594769    0.32237679369992
H         5.14545608239272    0.18668535696101   -0.30416877457859
H         5.24447641733168    0.94478907037188    2.44265891824672
H         2.58090495045268   -1.17222329967378    3.60074609951220
H         3.73175169624672    0.00249157184577    4.08527750654707
H         4.29352427649328   -2.92518155071257    3.87784158340080
H         5.59567964315336   -1.73158014753052    3.99744862610617
H         4.62560790187447   -2.70504265119853    1.35459803676269
H         5.91470672317888   -1.53272961284050    1.61846601743131
H         1.73934838159824   -0.50811560949195    1.43687102264727
H         2.48004071005985   -2.06452695813971    1.09316488940822
H         1.62345509351966   -2.35820464918878   -1.12875400182057
H         3.20529551094477   -2.61089521011423   -0.44204541695270
H         3.13362071913104   -1.96431243840539   -2.12603987446091
