37
 energy: -49.578283783364 gnorm: 0.147588607169 xtb: 6.4.1 (79825abcba525fcdf90b791dcacef51065a7a4e7)
C         1.96609671899884    0.74084721816927   -2.34369097383368
C         1.99699721566585    0.48307586174483   -0.83064320096296
C         2.76708799757745    1.71690792033132   -0.27987944613570
C         4.29751391381184    1.86165526566848   -0.41672442136129
C         5.04720251874188    0.81841089409543    0.42944976941279
C         4.33701250236801    0.67247922243423    1.76767896386067
O         3.36073016614410    1.68811316400000    2.17032494768471
C         2.44151843319480    1.95504986841363    1.17023304035355
O         1.37613032636294    2.48957641163858    1.47967725065854
C         3.65954513527820   -0.74531616857090    1.93135577596887
C         3.50558536511523   -1.21572025496135    3.50984272959364
C         4.94083556285310   -1.75750605181399    3.45974563815912
C         4.92882037117039   -1.77574901539446    1.96167680748274
C         2.48270378982623   -0.98488672071095    0.91823093179309
N         2.74726364018966   -0.71899370105906   -0.48854460549848
C         2.68578061556673   -1.86079267324947   -1.39742599317090
H         1.56742219470954    1.74485751272265   -2.51984960547847
H         1.29717251312586   -0.02134420501113   -2.76637065057155
H         2.94905016114986    0.79104735325784   -2.81846144380865
H         0.94982907615994    0.44946804350233   -0.51635958917007
H         2.30659861774470    2.57890114115404   -0.78171654338074
H         4.56632774513024    2.90495534454634   -0.19316573334514
H         4.72641707061928    1.73808759996001   -1.41269459115466
H         6.10103096947180    1.09443115157250    0.58958615459754
H         5.04880175268218   -0.06457944232096   -0.21547313113301
H         5.05364467908810    0.81958055933398    2.58380102357635
H         2.74946992102384   -2.00230713769870    3.57976652957154
H         3.26621147883068   -0.47298004290281    4.28360798356309
H         5.06834062313877   -2.69812099647932    3.99917445156247
H         5.65784122881731   -1.06406957609440    3.91157872444675
H         4.55226322588775   -2.73171499864786    1.53443355588046
H         5.87202070685878   -1.54936284676205    1.46500812616538
H         1.63023445933316   -0.37227207780497    1.24509317293462
H         2.24345362672654   -2.04939447249317    1.01242500513728
H         3.50542560091641   -2.51241397244866   -1.06537126525170
H         2.83614760326255   -1.71657582985809   -2.47193702355204
H         1.71525824185284   -2.35664901425933   -1.33142980815816
