37
 energy: -49.587312477413 gnorm: 0.130956798098 xtb: 6.4.1 (79825abcba525fcdf90b791dcacef51065a7a4e7)
C         2.17265920116774    0.45286765053522   -2.37612871425593
C         2.09115059270963    0.38719365818490   -0.84454203756006
C         2.58130465496517    1.76069384411871   -0.30420111029178
C         4.06863675045218    2.15010694076851   -0.43867237054032
C         4.99894585128709    1.18803595928835    0.31984393828100
C         4.42626117266788    0.85613886558945    1.69039122716114
O         3.27360986507798    1.69100392001531    2.03846966640889
C         2.23955569643138    1.93562842631160    1.15118162646768
O         1.13248173715739    2.29360405910685    1.55462537752561
C         3.96614648745399   -0.64126579412386    1.89525623530611
C         3.65961866914125   -1.11562299671976    3.45012942814048
C         4.69051668826819   -2.24110969815609    3.28729927119278
C         5.22580732977230   -1.67794204886192    2.00628657674783
C         2.69491852266439   -0.98874180352157    1.03967954685696
N         2.85121919901585   -0.77118787955543   -0.39138608012258
C         2.56263815808891   -1.96764255479510   -1.17800393459748
H         1.95553557615499    1.46387408134354   -2.73492285969304
H         1.49449947660419   -0.20736496592586   -2.93402273901674
H         3.13414268665364    0.19027314741760   -2.82414451042823
H         1.02648362631184    0.40474276805313   -0.59426004305455
H         1.90981076484980    2.51342930112430   -0.73941202507472
H         4.15177662213198    3.20695800176531   -0.14393856750847
H         4.30266975990760    2.12313166926802   -1.50435729860659
H         5.95257303372617    1.69993436855576    0.52218145360225
H         5.11327916070426    0.26445541092124   -0.25420040195970
H         5.15301042795193    1.06667222765767    2.48333947389508
H         2.61717359111353   -1.36135767047886    3.66976903283799
H         3.97439516679170   -0.38585229624662    4.20909322278584
H         4.16663666900445   -3.16170169431816    3.02261537572656
H         5.36133548333716   -2.35175166425843    4.14570762904534
H         5.33313286590194   -2.38172957543028    1.15108637907655
H         6.14401097916108   -1.14560002248713    2.25341281996707
H         1.89666419671030   -0.37892098148549    1.48661152468830
H         2.43459991556935   -2.00777884257809    1.34478224730202
H         3.12767997236561   -2.80864952419441   -0.75359423816481
H         2.91987533883047   -1.71775539241358   -2.18195647375000
H         1.48744217613978   -2.13056439403447   -1.08026566522173
