37
 energy: -49.579706165815 gnorm: 0.135743121979 xtb: 6.4.1 (79825abcba525fcdf90b791dcacef51065a7a4e7)
C         2.39121568368778    0.46050398072490   -2.47965747539735
C         2.17347084652973    0.47645543913426   -0.96010253618115
C         2.86655572636015    1.69740718816702   -0.29104925583283
C         4.37896560054173    1.39005319597768   -0.28541350727942
C         5.04574065299583    1.58535753944339    1.08705502135067
C         4.15499308553528    0.91756546243346    2.12491139711342
O         2.94321988038372    1.73837931690474    2.19298222458762
C         2.25437711434665    2.05866480948765    1.03570002148711
O         1.14551754255643    2.57749279675414    1.16901972920788
C         3.82532052822377   -0.60756494128280    1.87754689936839
C         3.95012141181330   -1.42469123491545    3.31049284728060
C         5.20673463987525   -2.14427064649175    2.80146105256542
C         5.01000815632167   -1.63188609321366    1.40738495867664
C         2.44397733027426   -0.80863076198728    1.15627364143362
N         2.52354320478618   -0.77363035436681   -0.29705106059235
C         2.04066915782275   -1.96975292052107   -0.98237865863002
H         2.21415484630850    1.42057230885184   -2.97455966059567
H         1.75114836475657   -0.33456883159108   -2.88613812746948
H         3.41643890785457    0.11047060840974   -2.62290029599150
H         1.11772422267553    0.71247400518064   -0.79836474454609
H         2.68185589141456    2.49713405739137   -1.02128631675981
H         4.99807092880684    2.03761366955750   -0.92423152108740
H         4.62298986607122    0.39192566906530   -0.65334975347715
H         5.11506108484968    2.65482704294377    1.33967118609320
H         5.99399812378584    1.04206509013512    1.12228490166407
H         4.62426150243969    1.02892979930427    3.10910692963566
H         3.08272790338178   -2.06847999594470    3.47926300932147
H         4.01521700147138   -0.84669014037633    4.24288378604298
H         5.40243287374688   -3.20244284510563    2.98577399384305
H         6.10075208481456   -1.69461538333801    3.24603653934115
H         4.61512103453910   -2.38722089514470    0.69202733018890
H         5.82357187771654   -1.00350823550754    1.04570457187339
H         1.74344533312625   -0.05590750249036    1.54550649609420
H         1.92337071289752   -1.73554620543597    1.41911662981607
H         2.45328417561157   -2.84721449131345   -0.46614363069354
H         2.33466797582184   -1.91730766889160   -2.03537290701848
H         0.95026996402457   -1.92686624857831   -1.01888926423059
