37
 energy: -49.579367055958 gnorm: 0.145354515157 xtb: 6.4.1 (79825abcba525fcdf90b791dcacef51065a7a4e7)
C         2.23450912169192    0.40428509016151   -2.41793825153067
C         2.20597564368384    0.44280916015871   -0.88352754509432
C         3.02032126379589    1.65495046571565   -0.34847915463495
C         4.52352143663854    1.32354085401527   -0.23695011103163
C         5.03885388243645    1.63791512204152    1.17797174875135
C         4.11848653993510    1.01362364914997    2.21706144639347
O         2.88371466326821    1.79965019260772    2.15176230777120
C         2.27903587841720    1.98229055657361    0.91993630667869
O         1.17298776585023    2.51647555244197    1.00842428575944
C         3.79044520668029   -0.51218531162267    1.97172132767715
C         3.89841296436523   -1.45877441790546    3.32409579605872
C         5.09384854219531   -2.18525534221659    2.69231739762259
C         5.08161420677283   -1.36299288141287    1.43995077474120
C         2.51612910676639   -0.77970257827267    1.09233259498688
N         2.67387586032159   -0.83219758069759   -0.35406592206606
C         1.97573491417568   -1.98974208668709   -0.90745583065765
H         2.07386640772844    1.38581313071556   -2.87489178589919
H         1.48842465492332   -0.27098394309251   -2.85887267633460
H         3.17803625659711   -0.05143503764527   -2.72809988158165
H         1.16811516902390    0.47572836110264   -0.53968634612643
H         2.75210485584560    2.48492977549991   -1.01639946572829
H         5.13004255443819    1.88612951373580   -0.96244342246241
H         4.70054058813291    0.27282483341455   -0.47326246717768
H         5.17716369747822    2.71514449161928    1.35916921991551
H         5.99678932043715    1.12847194983916    1.31371929121633
H         4.38413287255544    1.14657996202309    3.27205449309865
H         2.96768659571148   -2.00067815336049    3.51226484082712
H         4.28562771504316   -0.87461426803623    4.17055738010333
H         4.98107159970018   -3.23460219219039    2.41276416555958
H         5.94379473961435   -1.97799516317543    3.35090610754036
H         4.74447910388013   -1.81850509902820    0.48232267310893
H         6.03322692518748   -0.87366681236447    1.23367285715281
H         1.65123949679990   -0.16371734158266    1.37758289099160
H         2.23471906688531   -1.80095370876320    1.37008148486966
H         2.54284022727941   -2.85952971791201   -0.54891768081662
H         2.14548967757273   -1.93147994030692   -1.98716483758548
H         0.89858258082930   -2.07286210946708   -0.74941595854096
