37
 energy: -49.589279218357 gnorm: 0.148973191245 xtb: 6.4.1 (79825abcba525fcdf90b791dcacef51065a7a4e7)
C         2.20294872474717    0.54427193575291   -2.40132972098412
C         2.13732328523388    0.43390168326086   -0.87154993323557
C         2.70411813371363    1.75913157695273   -0.28739973774780
C         4.19837051353707    2.06180049406822   -0.52715634541205
C         5.02637603632614    1.09005657323571    0.33105296868400
C         4.42926705079612    0.91525989369727    1.72009231860078
O         3.35384690212749    1.81955454376339    2.13540669000336
C         2.36358299417230    1.90301752824525    1.17166367685148
O         1.20992922436463    2.11023317469461    1.54938161871566
C         3.88102415631954   -0.54894935127911    1.94684545912560
C         3.62090609509011   -1.08881219435844    3.48875707846824
C         4.47795118506193   -2.31757851718099    3.15470357201467
C         5.02333755901662   -1.71778500784408    1.89474768050783
C         2.61742096300365   -0.91076884442010    1.08593589857095
N         2.88412787693865   -0.69423333960459   -0.32887443322258
C         2.53599431270098   -1.92351290494741   -1.03684706368499
H         1.87980228484418    1.51490096680219   -2.79051550080970
H         1.49884326428914   -0.20539271084331   -2.78771280848894
H         3.17499010455962    0.32090960723366   -2.84783767348516
H         1.07693984906680    0.38445496065490   -0.60771892045242
H         2.23449435087768    2.58781689647837   -0.83480946722484
H         4.26869193839386    3.11649299630093   -0.22155356659152
H         4.45738521849153    2.09093312974312   -1.58698942362777
H         6.02943277591292    1.52618117903463    0.45777223987379
H         4.99671584020943    0.14731788956189   -0.22208725163753
H         5.18741733469927    1.10530210575703    2.48843327218878
H         2.57451473841849   -1.26728015541184    3.75054544848614
H         4.19097081667285   -0.41690148138459    4.14544404979225
H         3.83939487837657   -3.19755289876642    3.05526316432039
H         5.23026814397920   -2.46750302492013    3.93614214763100
H         5.09459200785972   -2.24901346449664    0.91959529584914
H         6.01175260279896   -1.29158124535137    2.06487534372902
H         1.73250410414745   -0.36856457553298    1.44894594206626
H         2.48193181603367   -1.94415456110588    1.42215992446818
H         3.04800169148880   -2.79445815778961   -0.60557988678554
H         2.89747320813404   -1.84047007820753   -2.06661383158750
H         1.48370485530583   -2.21254057848915   -1.07279976151453
