37
 energy: -49.581639921259 gnorm: 0.126730106352 xtb: 6.4.1 (79825abcba525fcdf90b791dcacef51065a7a4e7)
C         2.33103350884640    0.49896021004644   -2.43094114675851
C         2.13313826259247    0.43299812996336   -0.91002005696045
C         2.54439739465705    1.79736929541033   -0.28705989625522
C         4.06247013886427    2.03052174809218   -0.43864143063275
C         4.91105777301098    1.02253623764588    0.35525204857712
C         4.38245174150243    0.82727914549191    1.76910270003025
O         3.27821635175674    1.75122443892222    2.04067701567262
C         2.21396664057996    1.93587573325985    1.17484464100644
O         1.08539497603829    2.27971618799224    1.52786859742158
C         3.89799443312960   -0.66503915345797    1.95398956254281
C         3.68310175391087   -1.19975669117620    3.50463555940999
C         5.00787119570792   -1.97083270369292    3.42455804225515
C         5.19198315571689   -1.66459981642733    1.96956264753615
C         2.65374227099775   -0.95070219832372    1.03801752105606
N         2.79239211446622   -0.76247588869090   -0.39901258390451
C         2.34585351403397   -1.89601046600951   -1.20477501827563
H         2.43509447828392    1.54540952688762   -2.73446223986601
H         1.52157424768782    0.00352196243531   -2.98444825161582
H         3.24904049181471    0.00613685831295   -2.76035403270114
H         1.05467104644371    0.36025642753928   -0.74244344650657
H         1.99452008322461    2.59979578031692   -0.79761835457149
H         4.27169500695776    3.07556126444748   -0.16508741338773
H         4.34102265316983    2.06457073283410   -1.49336065855682
H         5.90303491522529    1.48883073102672    0.45982767601644
H         4.88977066893608    0.13276103222262   -0.27992272922912
H         5.12922529558040    1.05448656918123    2.53849320518950
H         2.92336982703647   -1.97884508794947    3.39905380342078
H         3.43563332515650   -0.52369026851117    4.33491811765686
H         4.92649974276976   -3.04167950266449    3.62118784784797
H         5.83725512672824   -1.60308561578918    4.03773728450753
H         4.97595360755633   -2.55971659035871    1.34482251217266
H         6.17041790404796   -1.24519272298749    1.73649508264849
H         1.82840408695149   -0.34936984701480    1.44551707249260
H         2.28845296424677   -1.96506924546952    1.23014545097388
H         3.00154005748088   -2.72086393757038   -0.89432296780939
H         2.61753355781579   -1.83324940075262   -2.26318594851626
H         1.29527179236759   -2.13300113906500   -1.02517501993024
