37
 energy: -49.581582019003 gnorm: 0.133636118204 xtb: 6.4.1 (79825abcba525fcdf90b791dcacef51065a7a4e7)
C         2.12775949539823    0.72099978853838   -2.37213574902187
C         2.06616868210520    0.45495947370261   -0.86145920605490
C         2.69997485645775    1.71826910713352   -0.21256735475119
C         4.17556941609032    1.95019897773691   -0.60078262119929
C         5.07688818922772    1.06850315582452    0.28048892982381
C         4.51890466110858    0.90125675948673    1.68662062359732
O         3.46458905816544    1.84369806285941    2.07000856764890
C         2.35171449156060    1.75692375581577    1.25124749992721
O         1.19990845281169    1.86668177943098    1.67293719870047
C         3.93569962901472   -0.55181909881908    1.89718741250480
C         3.60754301169411   -0.86689212929909    3.48767379927007
C         4.27176478551347   -2.23857234505827    3.30522510819184
C         4.98824287959313   -1.79151735480671    2.06769192684746
C         2.70247846017633   -0.98638949240855    1.02593215184568
N         2.84826110968491   -0.68132177527441   -0.39018562779037
C         2.61531458054723   -1.84160356841205   -1.24635882327691
H         1.76178359348299    1.70880200402216   -2.66931975583984
H         1.54232817590222   -0.07011973732495   -2.86045279643606
H         3.17526789735430    0.64279387470828   -2.67335744886337
H         1.03176955573652    0.34462450970487   -0.52336239532954
H         2.17888262396578    2.59069079707654   -0.63001980828312
H         4.37342943353138    3.02850773132309   -0.50688868945476
H         4.32332766595111    1.83649932824275   -1.67615388992699
H         6.00729634512566    1.65471214428178    0.33603125737143
H         5.25882469664308    0.12339401925989   -0.23842134204377
H         5.35935067619830    1.00253939615472    2.38278728898419
H         2.54050646290122   -0.90059660540054    3.72350391705436
H         4.09717547250212   -0.18949674752035    4.20116599665605
H         3.58618743482849   -3.05707232704285    3.07710466054719
H         5.02197896537407   -2.49915718901589    4.05913401170156
H         5.03772658255501   -2.52215419196323    1.22988275438010
H         5.96295119370409   -1.40388913438625    2.36306529385050
H         1.79360569254811   -0.55378933445113    1.46825216484032
H         2.59633762616189   -2.07376929259909    1.10096033032984
H         3.05073538216830   -2.72877811398695   -0.76675626056438
H         3.08038863510411   -1.67393762110772   -2.22287147089247
H         1.57470088657485   -2.17162550883070   -1.26510321194991
