37
 energy: -49.564525298380 gnorm: 0.142415716982 xtb: 6.4.1 (79825abcba525fcdf90b791dcacef51065a7a4e7)
C         0.84699220775566    0.52365027018396   -0.96277875225639
C         2.18734280367908    0.40636815121414   -0.22357671059708
C         3.13421114249108    1.62768907877054   -0.39832696313292
C         4.64764156942308    1.39347420014824   -0.58951688784545
C         5.33298708643980    1.00770497212519    0.73255959292117
C         4.32379297291723    0.78600952991379    1.85010228813114
O         3.35002742506132    1.86547043544744    2.03260732100699
C         2.72844007256888    2.31235542104434    0.87921569837531
O         1.86944090155765    3.19462994243976    0.86377935970478
C         3.90795990305664   -0.73519223581935    1.75563574541845
C         2.66023188653224   -1.24574911880123    2.71433859008587
C         3.65428616053443   -2.26621737595310    3.28572754883419
C         4.88418644298795   -1.70048569363470    2.64387058792862
C         3.91898350303118   -1.29249162894602    0.28659951457296
N         2.73029806287322   -0.92399445302107   -0.46900963370646
C         2.70734593359715   -1.38835840706387   -1.85370806887923
H         0.38620401471265    1.37683449154148   -0.45507722491568
H         0.27639341027245   -0.40775761306571   -0.84466933608615
H         0.93342724442251    0.82518246188710   -2.00955085887949
H         1.89117211338619    0.28214491293820    0.82204096270325
H         2.76402469059363    2.25903144072358   -1.21765111764575
H         5.06729443221986    2.35160845966861   -0.93096182186349
H         4.80136723971071    0.69991214700296   -1.41808406918864
H         5.96695234004376    1.88250359038820    0.94516414166288
H         6.00954995443046    0.15103873644428    0.66942730295685
H         4.86472567564916    1.03241046116598    2.77093565726891
H         1.78494308132603   -1.63786159070687    2.18951848958540
H         2.47898769100536   -0.50571561204105    3.50628335453563
H         3.50977448526071   -3.29861188990968    2.96126583004520
H         3.73875568315855   -2.41834065612352    4.36685095480772
H         5.50565181215408   -2.36649950123117    2.00480138854934
H         5.49819400953032   -1.19133337973829    3.38637714572289
H         3.87162784862096   -2.37413806076173    0.47801016625942
H         4.87030605684078   -1.03700019795962   -0.19193934886268
H         1.72166959179526   -1.19644244928673   -2.29901579855684
H         2.82134895533683   -2.47478034698000   -1.92207011482432
H         3.39686319020339   -0.81392496388109   -2.47558817014546
