37
 energy: -49.576127924673 gnorm: 0.149476065235 xtb: 6.4.1 (79825abcba525fcdf90b791dcacef51065a7a4e7)
C         1.77014932064936    0.70115408579770   -2.31783649275811
C         1.91562771462372    0.57430150960723   -0.79485949989732
C         2.70666092796124    1.82935459883036   -0.32813657607094
C         4.22032640799547    1.73390241287247   -0.61377189956049
C         5.00970111607056    0.79865892821532    0.31822047321664
C         4.37291038070149    0.59909588599198    1.68613694031468
O         3.32502231726286    1.56308508231720    2.03170711758507
C         2.41690622531738    2.08505655081504    1.12657717494719
O         1.52943612399222    2.75557236608317    1.65509541951680
C         3.73371559735654   -0.82291319369049    1.94151144231229
C         3.53235856717559   -1.08168922161545    3.56295987673884
C         4.81921150804614   -1.91825713514119    3.55078041200528
C         4.86312589914993   -1.99987016577682    2.05542151254847
C         2.48788035552120   -1.07478592030330    1.01780896984871
N         2.57856843053865   -0.65342936003828   -0.37285372206673
C         3.12292968770997   -1.62473841989647   -1.31825307653364
H         0.96256180057841    1.43333623924879   -2.41643468605230
H         1.42467361146111   -0.23080193001245   -2.78597961374555
H         2.62234149042587    1.00548693436204   -2.93043304726138
H         0.88720634637145    0.52531307276801   -0.42551628549294
H         2.23421886379706    2.63375734806666   -0.90835891933975
H         4.60743592140075    2.75843441589167   -0.50796628609279
H         4.51775916778995    1.47770072433103   -1.63214212766108
H         6.06319130238460    1.09508245901281    0.43936819587404
H         5.06128291651033   -0.18180152175784   -0.16306600611076
H         5.13287441430842    0.91643838998931    2.40932716962522
H         2.63604997842200   -1.68245879685215    3.73910091318163
H         3.57902657326711   -0.15430277017895    4.15071155122862
H         4.63623835057703   -2.95058049068266    3.85545528301300
H         5.73749180743371   -1.45173544282756    3.92256423886395
H         4.45059989666575   -2.88618658299991    1.52394381028291
H         5.73659619617532   -1.68361503924398    1.48569377126087
H         1.60183234794828   -0.60194194499861    1.46522051589289
H         2.27447490402886   -2.14814536729025    1.05839871081504
H         3.65687071773491   -2.45518374042075   -0.83663486864590
H         3.80929726141665   -1.14658234447355   -2.02412063110707
H         2.40709722228314   -2.22825570201104   -1.87994110977813
