37
 energy: -49.584929321269 gnorm: 0.143646884523 xtb: 6.4.1 (79825abcba525fcdf90b791dcacef51065a7a4e7)
C         2.59991847642450    0.49430890784579   -2.38965494392059
C         2.19376616745439    0.33851293937695   -0.91741773138377
C         2.54835265991852    1.71792286567420   -0.29274279460824
C         4.01831809488663    2.16323173541353   -0.44368486417721
C         4.84121770999653    1.12842699046977    0.34271070438951
C         4.31718156738770    0.94272831127423    1.75954713403913
O         3.09868050682967    1.67676151793066    2.11056528668255
C         2.12356692873644    1.85668783689823    1.14455840788562
O         1.04265020657673    2.30716489766334    1.52563010022125
C         3.94604335450907   -0.58728421372115    1.89074952800212
C         3.84193815965886   -1.14586572384074    3.44437546471497
C         5.19187759282201   -1.85775143397746    3.28046400032563
C         5.03549621033289   -1.80260353721489    1.79144050502009
C         2.63899791932932   -0.93688668798437    1.09188659859608
N         2.79717268263709   -0.86265908492630   -0.35351281839425
C         2.25133404934911   -2.04533031724149   -1.01449648716345
H         2.45867840148942    1.53761550825082   -2.68894158207147
H         2.09476819058961   -0.17224823064203   -3.10210019540832
H         3.67361170355515    0.29793357932565   -2.44203924755935
H         1.10281963514581    0.26326269710031   -0.94267389470157
H         1.94587306599856    2.45790801967332   -0.83713564150731
H         4.04418092742214    3.12152395824005    0.09642768613699
H         4.30284149399060    2.24058437378829   -1.49451619632719
H         5.85699949190224    1.52117486227344    0.50495050874468
H         4.89959259305556    0.18234781755366   -0.20238252415661
H         5.01825666493623    1.26048741956622    2.53978976766834
H         2.93668123415310   -1.75830708499195    3.47165769416629
H         3.74996670127763   -0.35887686511035    4.20586437223868
H         5.18011059738066   -2.91969652368110    3.53370623145657
H         6.04058815658234   -1.39963572380195    3.79904358495377
H         4.49849328764288   -2.69409608126864    1.39764874669563
H         5.91564072036936   -1.58690151034640    1.18615079153227
H         1.79711021488886   -0.30007942714793    1.39936214607832
H         2.37053819220563   -1.96585133396310    1.35351815210347
H         1.18552638226526   -2.18032102578883   -0.78532386323775
H         2.87193045028196   -2.86400262214953   -0.63684788747112
H         2.45077371225181   -1.96907112469426   -2.08526772889599
