37
 energy: -49.583347884288 gnorm: 0.141685967136 xtb: 6.4.1 (79825abcba525fcdf90b791dcacef51065a7a4e7)
C         1.96857567894857    0.54558057154983   -2.43436233083511
C         2.00149116738167    0.51131980222784   -0.89993825483370
C         2.92100754456858    1.63398405511537   -0.34062016581704
C         4.42999865863090    1.31096453874212   -0.31857355067018
C         5.08638936754272    1.49375746152351    1.06060757561946
C         4.21596861494075    0.83984950546601    2.12423128689219
O         3.02673671000925    1.69205768970609    2.20317425619642
C         2.39085678753614    2.01300857784354    1.01614582564550
O         1.37162569166945    2.69845709746942    1.10477130689013
C         3.78922865840810   -0.66995993448659    1.93912495402065
C         3.71100478043960   -1.48812921792799    3.37477280280552
C         5.13566716729176   -1.94800344375974    3.03589599922451
C         5.09285873076568   -1.59004591013335    1.58168788514024
C         2.50844180691752   -0.88657913807933    1.05513812605322
N         2.59579853592343   -0.71746611382490   -0.38828766241584
C         2.28926366006459   -1.92961884638102   -1.14345159398230
H         1.63512966709568    1.51724536675272   -2.81210720726513
H         1.19689552576710   -0.09891422544463   -2.87729535458585
H         2.98984399611407    0.37065287315496   -2.78154506326313
H         1.00041921819982    0.61787839708003   -0.47219415268507
H         2.64609406340431    2.47380430575531   -0.99334352511017
H         4.94318840030739    1.91292168831374   -1.08342536444850
H         4.55727163375944    0.25936826187495   -0.58150004490335
H         5.06320328017896    2.56825636231774    1.29998130053287
H         6.08054562572355    1.03861261822010    1.05078163669321
H         4.62694191872693    1.02077643950078    3.12404230855421
H         2.96969797086650   -2.26949571768586    3.18702445402082
H         3.66529730309025   -0.81562512371969    4.24271556051659
H         5.41890115256473   -2.99312532239349    3.17552490634115
H         5.88341022301065   -1.37297023226017    3.59206282698874
H         4.74611193512147   -2.43520453388825    0.94633239494535
H         5.93332558537614   -1.07733755038713    1.11445886590429
H         1.71033729946978   -0.22434398588790    1.42025917959136
H         2.14031533135661   -1.88819930022448    1.30116630484557
H         2.75651175874960   -2.84178936033962   -0.74808755388254
H         2.89062139715288   -1.87811550244769   -2.05652277033950
H         1.23976527141026   -2.01429350626616   -1.43246027961273
