37
 energy: -49.577652552538 gnorm: 0.134939744764 xtb: 6.4.1 (79825abcba525fcdf90b791dcacef51065a7a4e7)
C         2.07579022712176    0.51392221734606   -2.40537057419897
C         2.00110681497665    0.41602435944290   -0.87515722825431
C         2.54984345294244    1.75951494957459   -0.31601212271757
C         4.06831946636398    1.98155627708736   -0.47975005268593
C         4.88563221559237    0.96145146330363    0.33129165351499
C         4.31346926193512    0.82575134600277    1.73512154195183
O         3.29232873715031    1.84404060375060    1.99420130358339
C         2.20748196613407    1.93532965425369    1.13912057896129
O         1.09814490511993    2.20843075732922    1.59880877727544
C         3.77297892909572   -0.63450625422133    2.00235528506839
C         3.77127031510227   -1.10430524719658    3.58851123304336
C         4.94444914790826   -2.07048763219508    3.37373757330227
C         5.01073748331149   -1.70010964353633    1.92352607311459
C         2.56432649165440   -0.96593763677142    1.05468227655854
N         2.81892372342201   -0.66931032166225   -0.34778018033477
C         2.81668222581715   -1.87667966593559   -1.16985359660078
H         1.45616862878775    1.38293101133353   -2.64806937124459
H         1.77825641992702   -0.42540572285193   -2.89136452803696
H         3.09512980051941    0.79511770826554   -2.68105237979789
H         0.96291900096827    0.32348360370126   -0.54339364753966
H         2.11713478169609    2.56377543198528   -0.92662782871903
H         4.32909473928585    3.03572368021465   -0.30243178448978
H         4.33280847887793    1.84385282940816   -1.52963900346232
H         5.92829647264171    1.30834915458018    0.26130239891340
H         4.74947360624615    0.03609255773671   -0.23507552504772
H         5.10827461862832    1.11206598334261    2.43337942819612
H         2.84544284359405   -1.63883531437707    3.81750889805752
H         4.03509145654257   -0.20249738169837    4.15843802236839
H         4.85543953304291   -3.13677136808370    3.59079457646982
H         5.75450568791130   -1.68036754546554    3.99881287235885
H         4.77626186111226   -2.61129873506616    1.32942283110306
H         5.96156573755017   -1.29465180521707    1.57843632760551
H         1.75909098234519   -0.29211163552211    1.38086305803628
H         2.46305629783093   -2.04925575244074    1.17900501047807
H         1.85632692936735   -2.27172101404165   -1.52811132430581
H         3.40810208014374   -2.60905306102270   -0.61143219355763
H         3.44912371278769   -1.75256300579659   -2.05119093982279
