37
 energy: -49.584342688632 gnorm: 0.136024421576 xtb: 6.4.1 (79825abcba525fcdf90b791dcacef51065a7a4e7)
C         2.66532006468888    0.40824880941522   -2.48278008428882
C         2.18032934672501    0.42957666536990   -1.02639977540376
C         2.90610405159127    1.59351151948391   -0.29344081515004
C         4.41436393244560    1.26793300805974   -0.26130643848578
C         5.00124542186855    1.60424908765592    1.12031008779359
C         4.11869164372583    0.97038730595432    2.18606868663781
O         2.83525772672931    1.67303314039602    2.26255088678315
C         2.26581859226346    1.92856973212493    1.02690151752940
O         1.18488187140278    2.51827879099181    1.04548113223537
C         3.84800027440620   -0.55925455605923    1.89828776466169
C         4.05577118384858   -1.50462224875771    3.23982265476834
C         5.39252286077512   -2.04149345736440    2.70987081518989
C         5.14088313649318   -1.41197982611235    1.37380291718778
C         2.54035330105611   -0.83447810990192    1.07179944597368
N         2.47552131209217   -0.84452770377750   -0.38264348373557
C         1.46778876931759   -1.83894107158339   -0.74204247764013
H         2.61552559603033    1.41035149638097   -2.92018221513602
H         2.13359997184013   -0.35206982982269   -3.07120406164464
H         3.71566361937224    0.11019279836801   -2.52822847507031
H         1.10441905270483    0.62423468822636   -1.05786549612232
H         2.78099342039377    2.49624982487220   -0.90690160627746
H         5.00556807866861    1.83793941040899   -0.99362111257105
H         4.54863566257917    0.19159343839474   -0.38233419260670
H         4.96459032785777    2.69540436093114    1.26321508532918
H         6.04160222814218    1.29268724937320    1.24753817310981
H         4.49406494552140    1.24788250031059    3.17770722675484
H         3.26027515466393   -2.21902506701379    3.46815027661864
H         4.06593058052356   -0.92232037364106    4.17175444929703
H         5.36038259185534   -3.13080009214071    2.77601850508690
H         6.28681164228317   -1.63773502960602    3.19600980168939
H         4.74836946625681   -2.08729987514863    0.58128863384984
H         6.02170357327888   -0.88442843962305    1.00856019882986
H         1.77188741336059   -0.13633687333971    1.43359854261921
H         2.18788020165588   -1.80672531307594    1.43206048191831
H         1.71513633975107   -2.88142404632093   -0.49968532551515
H         1.32715249309161   -1.68577654471386   -1.81663298807547
H         0.50709804714017   -1.57798980705142   -0.29357791102237
