37
 energy: -49.569496507314 gnorm: 0.145004922951 xtb: 6.4.1 (79825abcba525fcdf90b791dcacef51065a7a4e7)
C         0.90647440579099    0.36511648015198   -1.32107549698951
C         2.02524975997538    0.28209189466167   -0.27314272383179
C         2.70406763902629    1.67858799774315   -0.18523929413696
C         4.14693384286761    1.64888251804551   -0.73217308740138
C         5.10312304952904    0.85990358060050    0.17866007164247
C         4.56961535627937    0.55281286263886    1.57063282981950
O         3.73071530237963    1.66957606176103    2.01318222625921
C         2.76685292933216    2.24926071651064    1.20613557899470
O         2.17367396237769    3.22577457750974    1.66557607211233
C         3.88062296728965   -0.86506089518323    1.67464928857192
C         2.74479035681765   -0.88701621040776    2.87714958667140
C         3.62603309209113   -1.84277705136845    3.69318706110589
C         4.70163719526285   -1.88782775143047    2.65120162668232
C         3.45296735681693   -1.68281840613268    0.40297522131178
N         2.89090224052964   -0.83289666469040   -0.63694029098198
C         3.55993075454400   -1.09876650763701   -1.90787085695427
H         0.15223932263415    1.00716200050780   -0.85533211019886
H         0.47839217602359   -0.64094183251384   -1.42899095040375
H         1.09994352607046    0.73756059993665   -2.33002524498346
H         1.60351327960987    0.04065509487660    0.70681207790406
H         2.11949309146044    2.41393461422479   -0.75485426366652
H         4.45717389535289    2.68561117740544   -0.93131933141596
H         4.13910449806690    1.23581933038760   -1.74237157719900
H         5.96717080881178    1.53650654637036    0.26818753013536
H         5.57690722569868   -0.05062631028691   -0.19825361055055
H         5.36399331922538    0.60633924060429    2.32386206760881
H         1.76584924867853   -1.24504922474604    2.54729279829519
H         2.59692128671539    0.11280483556593    3.30862169531063
H         3.02280459154710   -2.74870777090206    3.77922409275735
H         3.94674500662555   -1.58849696007982    4.70885920976439
H         4.83506494837716   -2.89635309141213    2.20033943393808
H         5.68659761230111   -1.56301945703455    2.98573101509950
H         2.74456905851387   -2.46435676680465    0.71315136021116
H         4.40731793446043   -2.07921447046520    0.04051823620183
H         2.99519061817748   -1.93333910373871   -2.34518735899601
H         4.63004854815812   -1.28749333961763   -1.77667338058645
H         3.50853936453710   -0.23130005351859   -2.56893330656277
