37
 energy: -49.575858091173 gnorm: 0.144432636092 xtb: 6.4.1 (79825abcba525fcdf90b791dcacef51065a7a4e7)
C         2.43294970567428    0.53832848808140   -2.41587677540647
C         2.16807583110480    0.41913365922703   -0.90844553924845
C         2.91593318790655    1.58323963048291   -0.19831258641950
C         4.43363142873648    1.32401307009320   -0.30449877685900
C         5.08746885778647    1.49061618609915    1.07794205162799
C         4.14865404591776    0.91768799407158    2.13003681076527
O         2.94101614922617    1.74217330967855    2.22276226891285
C         2.22463725484635    2.00983242969743    1.06883456565088
O         1.18990644448805    2.67741666827031    1.05506456245010
C         3.71072221742484   -0.58182442163120    1.89429501031716
C         3.85954336671897   -1.41740813667594    3.31424460886628
C         5.21568627800275   -1.91244727372048    2.79290272175317
C         4.98931841293352   -1.46288372621617    1.38175510085753
C         2.39145897044117   -0.92376066861669    1.11237703005449
N         2.63981256580815   -0.82782865860996   -0.31899504883010
C         1.97827836891867   -1.96648200961760   -0.95096936582005
H         2.27182456492660    1.56313320147852   -2.76490958953039
H         1.68675248135101   -0.03286236848242   -2.98507285992411
H         3.45147864873351    0.20948120005868   -2.63629180363592
H         1.11582024003210    0.58844317251104   -0.66236164740624
H         2.74226735298917    2.41462428241726   -0.89513610632257
H         4.98167311174249    2.02431873016372   -0.95252402666688
H         4.69707671554655    0.33368003695605   -0.68002580277244
H         5.34648799672509    2.54187974288352    1.27828996051187
H         6.01702014663286    0.91659425985044    1.03285002999128
H         4.63048093026317    1.01559943046154    3.10958360529584
H         3.14331021587398   -2.24155021243561    3.37009038062808
H         3.97085468574383   -0.92124749682888    4.28846736339445
H         5.52432195404877   -2.95931299073446    2.76437810118440
H         6.09425105485534   -1.53024745228779    3.32314006625997
H         4.49979239433581   -2.22939491327559    0.74064050219240
H         5.75335333753230   -0.89034668428977    0.85638919275029
H         1.50608019047412   -0.35772578587198    1.43571668978902
H         2.06020082618639   -1.92380682809919    1.41148514032159
H         2.25218354778494   -2.90293576343165   -0.44627253444714
H         2.32601207451797   -2.16105905687529   -1.97038279733997
H         0.89132487539883   -1.86324499708307   -0.95508284860867
