37
 energy: -49.580709194501 gnorm: 0.142551146247 xtb: 6.4.1 (79825abcba525fcdf90b791dcacef51065a7a4e7)
C         2.07367982642233    0.63519515451932   -2.36718710381344
C         2.09199854702437    0.44828749562204   -0.84355840202127
C         2.56956680548460    1.82386363703542   -0.29726093880462
C         4.08946611585601    2.04930399614378   -0.44205245999714
C         4.87956269724114    0.97185903209867    0.32035316648710
C         4.32960516650380    0.78671694751367    1.72740413449674
O         3.29808483575094    1.76738552780263    2.07528087960993
C         2.27363536387971    1.98416438291781    1.16979789027636
O         1.19128267258331    2.39168978772650    1.59283672655305
C         3.87199713030022   -0.71291177077579    1.92132290140235
C         3.56559761106897   -1.23547891797468    3.46068887837473
C         4.89705632544503   -1.99840984776150    3.42694291069407
C         5.02468811617119   -1.87254307113176    1.93947691917829
C         2.61612354223360   -1.01727952045654    1.02750335026031
N         2.85277146238664   -0.70320124451718   -0.37430299788516
C         2.87039328245072   -1.88078831570093   -1.23832186395546
H         1.43284960711792    1.46163360806792   -2.69021344834466
H         1.77512356445218   -0.30298141594567   -2.85477539972303
H         3.04827182000459    0.94141978213507   -2.75515803762973
H         1.07910602803182    0.28523197434600   -0.46418202469925
H         2.08581603270006    2.61920314988821   -0.88065059640110
H         4.24071793917827    3.08837251052138   -0.11315440541818
H         4.39722317854434    1.95759374500358   -1.48515278978324
H         5.87681788000372    1.41452443408409    0.46838933101064
H         4.97591721334215    0.00493912478111   -0.18102667094252
H         5.07610536531807    1.05435268397512    2.48395172678757
H         2.66966184152073   -1.86040393789281    3.50636869549573
H         3.55463081227021   -0.40953744162697    4.18551711105108
H         4.82547763834394   -3.03160669261998    3.77245446315852
H         5.65563402399124   -1.39103744486804    3.93168348772059
H         4.54099675264075   -2.71629484728646    1.39880266618860
H         5.92177819031789   -1.56281435534720    1.40388857363352
H         1.68363029445260   -0.50607575470123    1.30672842004437
H         2.47877478279399   -2.10074020983255    1.10836235375922
H         3.70370156662409   -2.56314253567008   -1.02226959980098
H         2.99950772671222   -1.64154518619571   -2.29854583745793
H         1.97142953671708   -2.43316173310599   -0.95744736880863
