37
 energy: -49.577269668960 gnorm: 0.150543838783 xtb: 6.4.1 (79825abcba525fcdf90b791dcacef51065a7a4e7)
C         2.48575585388233    0.61617531573147   -2.41944418329031
C         2.03493141974575    0.46211804014990   -0.96008194070728
C         2.56665509784819    1.77067384784979   -0.30917971177628
C         4.07610166688928    2.03415697514117   -0.49365074654419
C         4.88286286367394    0.97042727218172    0.27056002360727
C         4.39758724946431    0.79930791678744    1.70295279919242
O         3.29384452335677    1.67588967325937    2.10310243724661
C         2.30464370952181    1.91870158938472    1.16559863926252
O         1.30476798517245    2.49834820680868    1.59078625349301
C         3.86811495080237   -0.67187627979877    1.92916528115159
C         3.81752469280932   -1.09707292894429    3.52705550005462
C         4.79592927383498   -2.24662244582591    3.24912549723250
C         5.02909314129092   -1.81926359131630    1.83219698231691
C         2.51491324357723   -0.90826839226974    1.16644940812814
N         2.62044802042665   -0.67907472512345   -0.26744079016315
C         2.45368832076983   -1.91242040009848   -1.03203224650282
H         2.69223717832657    1.64431099009699   -2.73299226979918
H         1.77419666881810    0.10060470706931   -3.07893181748106
H         3.47791502262087    0.15824437884113   -2.41281321652107
H         0.94853843545485    0.36871296252425   -0.87353389078460
H         2.05211606648129    2.63107159096317   -0.75849982499014
H         4.15019222385943    3.08404060733416   -0.17276232339241
H         4.44663888221576    1.91582842366610   -1.51339777781885
H         5.91723057949706    1.34568092541692    0.31122189844914
H         4.86990388164060    0.04759970371238   -0.31580282667643
H         5.15494527834724    0.99991921883076    2.46938585313085
H         2.85327881526335   -1.51980899291278    3.82174676249613
H         4.07811227852678   -0.24283187395746    4.16740063675457
H         4.34183495320179   -3.23940368270795    3.26258751138213
H         5.71776477521515   -2.27401501610388    3.83952651818122
H         4.68155940846238   -2.57448754090900    1.09256184719383
H         5.93318457301399   -1.27794407028342    1.55443949216650
H         1.73524285956558   -0.23299280763155    1.54718103271821
H         2.13473328149077   -1.91058653731645    1.39030527391401
H         2.27324670108769   -2.71458370343040   -0.30356576189136
H         3.31374640358046   -2.13150217418284   -1.67256793004828
H         1.59961852216749   -1.81705506622041   -1.70554016980539
