37
 energy: -49.581567460903 gnorm: 0.144715552436 xtb: 6.4.1 (79825abcba525fcdf90b791dcacef51065a7a4e7)
C         2.36367957465546    0.42632557874423   -2.39950349981103
C         2.15393483966283    0.32525933556717   -0.88210202113779
C         2.48221566445581    1.71571976701633   -0.26763184654247
C         3.96914405551575    2.10001381704790   -0.42009141437723
C         4.89086881505766    1.15857313612539    0.37395865666687
C         4.32628237182233    0.87242809366303    1.75811416532678
O         3.25977675130896    1.81893549861025    2.09494171517455
C         2.20693654707700    1.90395221159253    1.20012948999398
O         1.15096698965486    2.43273686074974    1.54918718063164
C         3.85584916284703   -0.61757995602447    1.99149052192084
C         3.74163646204198   -1.16311191441902    3.54903828751788
C         4.78296773892886   -2.22223391311448    3.16190205105604
C         5.12027495602342   -1.64062048850989    1.82300808198122
C         2.61212283813931   -0.93043960871675    1.08372663599949
N         2.93904635341174   -0.76978918016961   -0.32589066066479
C         2.57108725285687   -1.95983252247223   -1.08874937445815
H         1.89085695556316    1.29612770264315   -2.86629354418618
H         1.87191773617185   -0.34302192872456   -3.01050936960739
H         3.42277016889204    0.50331614308518   -2.65742614738853
H         1.07008149846895    0.23096845886218   -0.76880605556481
H         1.90926643141999    2.51011080075512   -0.76522135488095
H         4.16306170902598    3.13894287468475   -0.11392677449822
H         4.28979007477433    2.15670301009519   -1.46179960003523
H         5.91959964137750    1.55084050120602    0.38894045438536
H         5.05499523532927    0.19367479881299   -0.11351828196430
H         5.04918084380810    1.08090967631051    2.55511412281377
H         2.72967500764241   -1.51150913893195    3.77235917544141
H         4.05821229304343   -0.40503879269171    4.27895639649127
H         4.43438523819262   -3.25663370244021    3.18436929157732
H         5.66257975531298   -2.26974650080747    3.81238622817970
H         5.01704236288205   -2.34129089215901    0.96474993013301
H         6.11494585364939   -1.21614381567830    1.68881898311768
H         1.72041628168926   -0.33231794761695    1.32026308728394
H         2.46456784777061   -1.98080374532992    1.35622001566805
H         2.69712576792535   -2.95187214905320   -0.63415038921267
H         3.17074788768869   -2.00373291719186   -2.00333265536854
H         1.52364560764421   -1.83814471557154   -1.37194678848892
