37
 energy: -49.574348968421 gnorm: 0.132611225614 xtb: 6.4.1 (79825abcba525fcdf90b791dcacef51065a7a4e7)
C         2.62220689764713    0.59904998170608   -2.41935505834397
C         2.19328402984077    0.35772858679265   -0.96522176837536
C         2.54025400715694    1.71723524551725   -0.29434505935480
C         4.03698636539729    2.08301800735006   -0.38309796428415
C         4.92653117527525    1.09310634167306    0.38838601588389
C         4.25849555938423    0.80967935943842    1.72626525957085
O         3.14110667158807    1.69585483788002    2.06226882465105
C         2.12653425146293    1.89543823259391    1.14183495094790
O         1.02516778481977    2.33899055487791    1.46860613591438
C         3.83057571426218   -0.69380443677796    1.95499436003862
C         3.89276899501788   -1.10674098322134    3.55568799575832
C         5.18091534199213   -1.88026838044554    3.24212929435965
C         4.97903862270176   -1.84098800340244    1.75808406692804
C         2.53758814131217   -1.04622513901833    1.13477830122073
N         2.71689727621491   -0.82501540826524   -0.29302522988327
C         2.32833054706305   -2.01663497949720   -1.04309799329462
H         2.02489237296398    1.48975295891677   -2.63815514814709
H         2.45845807145473   -0.17797332287799   -3.17861428012301
H         3.70512916869460    0.74533207038751   -2.42168543207925
H         1.10197163977796    0.28411243031007   -0.97431710148513
H         1.96086262286335    2.48914036019389   -0.81912251168373
H         4.10431071239780    3.09837011657356    0.03552114581340
H         4.36014980919825    2.29489072796056   -1.40381281922335
H         5.92558869982059    1.52502387069597    0.55486894655482
H         4.97537197379763    0.20806982564855   -0.25186783214583
H         5.01156806186249    1.05614795672588    2.48349094786199
H         3.00033368192850   -1.67602962150890    3.82916284256912
H         4.00518108060697   -0.17849696243197    4.13309784024074
H         5.17995615626873   -2.85305922248983    3.73778494005649
H         5.98547757492638   -1.19643056320512    3.53221525492708
H         4.51689306825821   -2.73809742512807    1.28923524931188
H         5.81731951883563   -1.61144459178420    1.10070113594762
H         1.71080647050571   -0.45892336048587    1.55945262584674
H         2.35965120123637   -2.11891910744991    1.26499358783019
H         1.35650165249778   -2.27164702718888   -0.59901914606359
H         3.15093205814957   -2.73463670538692   -0.96705213767065
H         2.14870476889975   -1.90961136469864   -2.11474309104419
