37
 energy: -49.578691994959 gnorm: 0.154369987928 xtb: 6.4.1 (79825abcba525fcdf90b791dcacef51065a7a4e7)
C         2.00078676257262    0.46900317593995   -2.37556089431063
C         2.04249052654549    0.41340505670303   -0.84197551654104
C         2.87853134796591    1.64574910176365   -0.39354937239793
C         4.39365027700740    1.35455337017681   -0.35479991505589
C         5.08753295927272    1.62283123186010    0.99166078236639
C         4.21263213188313    1.01848756348155    2.08062386323706
O         2.92065550733912    1.70576526197269    2.15279782191600
C         2.36068982169333    2.09247342365158    0.94727533249095
O         1.43563407457341    2.89697346539835    1.06379880479285
C         3.90053580343671   -0.51686461565992    1.87768176926929
C         3.85255879621675   -1.34861616885463    3.30683966771045
C         4.82319714277596   -2.38293224208653    2.72029370657987
C         5.19889114233850   -1.46945439162128    1.59375048613443
C         2.53516509656898   -0.92511717037901    1.21596862777956
N         2.59797336203636   -0.78845633968632   -0.23216374806804
C         2.33653032778058   -2.03604717819861   -0.94540640063414
H         1.16111300572424    1.13613286218467   -2.59441215951940
H         1.52115707657686   -0.43754242005394   -2.76949478572731
H         2.92641304792454    0.80087394946994   -2.85221830588600
H         1.06817389235921    0.61086461688695   -0.38570627211841
H         2.59879878285448    2.44443642738210   -1.09410022309087
H         4.92380158192955    1.80711889157200   -1.20617436970582
H         4.42872586386357    0.28568758241630   -0.57269693716644
H         5.09894730488826    2.70492774104993    1.19493920526744
H         6.04989212764405    1.10389473184527    1.00469102766474
H         4.60511244640704    1.15006066122134    3.09546543967746
H         2.83646027670517   -1.62545842706507    3.60047379204472
H         4.31796701592076   -0.77300639170408    4.11908602356863
H         4.28103213766934   -3.27061460172970    2.38851878769294
H         5.65978024839179   -2.76213934788047    3.31647747641861
H         5.30304149318129   -1.82987137864483    0.54615546272286
H         6.07948010107665   -0.84957448621504    1.76069164349471
H         1.72736484717408   -0.35879429659050    1.70133112153742
H         2.46112322014287   -2.01076308354442    1.33917853881541
H         3.06700235212611   -2.75938875239952   -0.55826798721887
H         2.53451320703018   -1.88458329484059   -2.01116630052860
H         1.35705820831768   -2.51673987111977   -0.90403510379294
