37
 energy: -49.574777329015 gnorm: 0.155203367169 xtb: 6.4.1 (79825abcba525fcdf90b791dcacef51065a7a4e7)
C         1.54663484714567    0.44387787250387   -2.20943702232956
C         1.99759847428634    0.47540915529846   -0.74234737084986
C         2.73271182372169    1.77788781245269   -0.31587368675910
C         4.25014199400370    1.92764428624099   -0.55432813788598
C         5.13314532288909    1.10307387500683    0.39792779533479
C         4.45539247782788    0.81573517739738    1.73007301654883
O         3.36823858513499    1.73645246738169    2.07232937741641
C         2.38460824663105    1.99294683682044    1.13261066032672
O         1.30055580617898    2.39805388618965    1.55361513475262
C         3.88424646027766   -0.65498776989241    1.81169535462861
C         3.42826682956706   -1.02754083376740    3.35762276260365
C         4.61151604752236   -2.00437334296095    3.39890527367523
C         5.06409747899428   -1.77306615688931    1.98952440456073
C         2.62505148072356   -1.12870411370036    1.00003504375852
N         2.70939266215477   -0.75071818468269   -0.40343268211357
C         3.09270260813381   -1.87756831839632   -1.25009241123563
H         0.79279309992103    1.23502585056438   -2.27122219451957
H         1.10728034698684   -0.51511518169658   -2.51660701803380
H         2.27118343573614    0.69937693511625   -2.98653038113740
H         1.04924931751735    0.39652641813215   -0.20301797782565
H         2.23280427154695    2.54064013431747   -0.92842947745599
H         4.43033229882409    2.99963378998497   -0.38378667226987
H         4.46589678480793    1.68920724868450   -1.59729560018769
H         6.08350900667100    1.63879591666292    0.54691109975135
H         5.31241361794462    0.11409801517838   -0.03264123038625
H         5.16079672359674    0.88978872666324    2.56564266532268
H         2.40293541147452   -1.39194834201019    3.25169119645901
H         3.51768702146012   -0.12143850779963    3.97297484062231
H         4.35196111909182   -3.05004343341484    3.57554831900712
H         5.42519516289378   -1.77466623284799    4.09479704224200
H         4.99489496440870   -2.60308044864837    1.25162852293769
H         6.03840279800939   -1.30577546580904    1.84836519391325
H         1.71980298513093   -0.61858563855568    1.35940102460101
H         2.58507387840827   -2.22243205804089    1.03812583922192
H         2.40930224305088   -2.73680455013710   -1.28704636022341
H         4.03349394995439   -2.16796111013229   -0.77200625248523
H         3.23417634709507   -1.38795447375926   -2.21570421600680
