37
 energy: -49.581792015034 gnorm: 0.139975691230 xtb: 6.4.1 (79825abcba525fcdf90b791dcacef51065a7a4e7)
C         2.57353418062767    0.60351500379936   -2.41780631851903
C         2.12280589272199    0.48820539216023   -0.95484281898694
C         2.64144819498937    1.80039085403291   -0.30070094662105
C         4.17165414994664    1.96495240090961   -0.41590113616369
C         5.02469674593564    1.08767557337875    0.51635756384829
C         4.29785046216013    0.79802245633955    1.82185319924464
O         3.19002488443692    1.70097746439337    2.14458846410994
C         2.25223440585456    1.91404130394239    1.14882641163301
O         1.14975416702606    2.31546599169551    1.52288751999152
C         3.71353232073593   -0.66432542074080    1.94837171991995
C         3.76483990305292   -1.19279922861841    3.51511601457340
C         4.97500760248652   -2.06274445423716    3.14813625133518
C         4.78525039727067   -1.86860916559520    1.67470790643128
C         2.39798147252121   -0.83726545131200    1.10683186764209
N         2.71181700439834   -0.67654593414776   -0.30574908768647
C         2.52156993366769   -1.90547238562540   -1.07197117623147
H         2.29147325349419    1.59354194866088   -2.78969097399284
H         2.01026691489543   -0.18533599007995   -2.93500799181690
H         3.64379309813737    0.41716296008149   -2.53588804242647
H         1.03878635645785    0.61893042496932   -0.88944083799613
H         2.18615050036959    2.61918324058154   -0.87446595423022
H         4.41351889516433    3.02818560534927   -0.26841885829208
H         4.47396649985858    1.72063404691273   -1.43575370569580
H         6.05853462119958    1.43367871910972    0.67078009207902
H         5.17844446152732    0.13292399319398    0.00605264670879
H         4.91792947742652    0.88386116195125    2.72151393282304
H         2.80825943950800   -1.67098270021312    3.74230144352505
H         3.82155430292025   -0.41859805469263    4.29297948661886
H         4.91823423279413   -3.11204679693297    3.44434367822772
H         5.91023013755098   -1.74443609668143    3.62051640462141
H         4.28286576932622   -2.68813969577134    1.11418811505114
H         5.71321185798950   -1.59674642909070    1.17217876500447
H         1.58190087223138   -0.22140312530774    1.51126436400053
H         2.02460102191268   -1.84896517680096    1.29746407103278
H         2.73963238697823   -2.76372625742354   -0.42194223581536
H         3.21497685423381   -1.90384559835047   -1.91882824351092
H         1.58940486537052   -1.93998722723123   -1.63943897534269
