37
 energy: -49.581177686345 gnorm: 0.152670570974 xtb: 6.4.1 (79825abcba525fcdf90b791dcacef51065a7a4e7)
C         2.08099919816550    0.54219387533137   -2.39875653830510
C         2.06070402995537    0.47201129890398   -0.86533651551776
C         2.72813261404731    1.77601457330942   -0.34299887391344
C         4.25679417438257    1.98091967708405   -0.39858270689402
C         5.03815128748607    1.00508052347810    0.49786673527925
C         4.33956855264629    0.76834377635905    1.82920485520150
O         3.32260058120477    1.79361898357593    2.07689458302807
C         2.36153166365406    1.99283201767831    1.10065180807558
O         1.34280657474397    2.46646143829914    1.60503314050271
C         3.73000949312203   -0.68874714131730    1.86412956453161
C         3.59722918182701   -1.20270062592262    3.43091797549607
C         4.86517216396499   -2.04857282129519    3.24979502006245
C         4.95235180280017   -1.77159894935832    1.77997442530971
C         2.41456536170392   -0.95712139315502    1.04782472766982
N         2.69335310127786   -0.74216176151418   -0.36489540972903
C         2.71040572067629   -1.93923800965252   -1.20171563372650
H         1.64298623218908    1.50352936255525   -2.68509310370289
H         1.68107176461365   -0.29610133488670   -2.98558926065912
H         3.12138693772278    0.59423691849537   -2.72892224557585
H         1.02623095644575    0.58870227207474   -0.52960825390822
H         2.18059195865815    2.53155747414441   -0.92289318068597
H         4.40834046010660    3.01594236677473   -0.05729664305848
H         4.59323350879772    1.80251379470217   -1.42140399624358
H         6.03155929755245    1.44969914532093    0.66472015935268
H         5.12123138002149    0.03167632252123    0.00676388664547
H         5.00822952026665    0.91378389234052    2.68535635063002
H         2.64179840702252   -1.72048690909398    3.55078554603307
H         3.52849709140623   -0.40276516006078    4.18128769303368
H         4.77471036925020   -3.07581847267512    3.60837624732108
H         5.67490075029013   -1.54310009925426    3.78639669218862
H         4.58217774064694   -2.70571573097823    1.30185305877995
H         5.90802833374605   -1.33067035380206    1.49744708507140
H         1.67726596856261   -0.26339339184938    1.47674273383110
H         2.12794187919270   -1.99920882153737    1.22443359638339
H         3.48655017648853   -2.58533998944616   -0.76946504267310
H         2.91817568545511   -1.82424085515854   -2.27016777513254
H         1.76567590486691   -2.48662099372157   -1.20136065480954
