37
 energy: -49.529113654958 gnorm: 0.148818783234 xtb: 6.4.1 (79825abcba525fcdf90b791dcacef51065a7a4e7)
C         0.87582759553634    0.65149287062078   -1.22890002457450
C         2.06731266826445    0.34930329976664   -0.30924832244044
C         2.81949905134424    1.71038687278454   -0.28951835781883
C         4.28400855098603    1.65977357511006   -0.77380351089388
C         5.16099722287238    0.79745680468493    0.15015712961240
C         4.51017612505120    0.54454896751977    1.50255973948055
O         3.58793908134649    1.56991422484799    1.99740135470192
C         2.79482349438009    2.27253764177460    1.10651568605606
O         2.01997995323961    3.11873518280440    1.55383369349849
C         3.93751388807657   -0.90034743364284    1.78580566546914
C         2.73615363299701   -1.45848601818018    2.77667373708949
C         3.76883864460787   -1.61005035948198    3.90209571001400
C         4.85705846783454   -1.69983863074970    2.87622872195291
C         3.78066383134009   -1.52876887216603    0.35428335029204
N         2.97487771991966   -0.75830016761655   -0.58209003801222
C         2.83872471567062   -1.30846097397494   -1.92832028232023
H         0.32221224475523    1.41448419012335   -0.67269484371527
H         0.20592375475425   -0.21525349745839   -1.31276326694731
H         1.20775335105581    1.00939268259420   -2.20657969603735
H         1.78180391497308    0.23162334341066    0.74008526849020
H         2.51850424280322    2.57679228398294   -0.89422246476140
H         4.75156631843300    2.65428627742162   -0.71858886866329
H         4.24166395886847    1.26146577779613   -1.78905782508525
H         6.10074430565430    1.32609236261564    0.37332775698363
H         5.39259092579909   -0.06002883331508   -0.48755972212975
H         5.28366368792357    0.58089380152808    2.27822187759519
H         2.48952421843535   -2.48990276022462    2.51083118031456
H         1.78082884865440   -0.91532512859500    2.77415285739379
H         3.72623681957246   -2.41854468052622    4.63457060892886
H         3.95560640525871   -0.64726543714017    4.38919673398536
H         5.23555405965374   -2.61959409405947    2.37723571895395
H         5.74446880599508   -1.20411162593502    3.26905818206186
H         3.38783940182048   -2.55134775355711    0.44841617236382
H         4.75904806063444   -1.66047630103169   -0.11974973806747
H         1.84742454475394   -1.74559331327504   -2.10978059582610
H         3.52626239154162   -2.13408240950637   -2.13718357450908
H         2.99959045139004   -0.50221155770899   -2.64680951571019
