37
 energy: -49.576876965197 gnorm: 0.141523855745 xtb: 6.4.1 (79825abcba525fcdf90b791dcacef51065a7a4e7)
C         2.07834171895456    0.53738193154675   -2.41336165409336
C         2.12221230569461    0.37729416870290   -0.88720250464171
C         2.53149287677128    1.73584260925411   -0.25036842190698
C         4.00011946228439    2.07157093153808   -0.58548678278998
C         4.85553201138309    1.15138392656213    0.30216622608574
C         4.40672110176514    0.93119172021287    1.73973622164906
O         3.25322739223446    1.73961063853658    2.14306541820609
C         2.24308599317784    1.92478094407178    1.21477905911788
O         1.16111494103996    2.37229140612158    1.59635369603254
C         3.97852032587176   -0.58201307944443    1.89057152102721
C         3.69797839715789   -1.06668571382524    3.44716825824823
C         4.81615206474182   -2.11350357200931    3.34794767536073
C         5.03758732075698   -1.82786075800269    1.89396624325279
C         2.69710279873765   -0.95313203696569    1.06050436812266
N         2.90227174371060   -0.73779035854089   -0.36471215235952
C         2.82770600063130   -2.00800655981355   -1.08202743013811
H         2.07279065842511    1.56835381832355   -2.78088860243299
H         1.14441535760035    0.11160290637503   -2.80521269753195
H         2.95430812327063   -0.00701624190963   -2.77452368810202
H         1.05395156397777    0.34861561220032   -0.65383297450178
H         1.95473777393806    2.50317128153752   -0.78467500112516
H         4.10211157981521    3.13478278980860   -0.32111472372517
H         4.36918526870004    1.84310782060508   -1.58687507799871
H         5.92369985826636    1.41068443243195    0.23762198421735
H         4.72239782115756    0.16123874313805   -0.14222984603969
H         5.07871098113253    1.23959013635622    2.54879476706702
H         2.71709043665777   -1.53760549932925    3.55399616597051
H         3.84952784733345   -0.30119331228152    4.22094452715023
H         4.48139902355042   -3.09941517642742    3.67645364330881
H         5.70416224661663   -1.78979472799830    3.90089876889328
H         4.72092077658766   -2.62847902836704    1.18902956042564
H         6.05978266098352   -1.61761745034591    1.58016408239804
H         1.87096515235712   -0.27847521776849    1.32728962742287
H         2.44972827548750   -1.98810506941339    1.31920613175507
H         1.81267623867884   -2.19457053014940   -1.45832123901569
H         3.09067522838136   -2.85274587263593   -0.43763207558752
H         3.56877141943401   -1.99771672783642   -1.88381222514097
