37
 energy: -49.583063247402 gnorm: 0.138792925081 xtb: 6.4.1 (79825abcba525fcdf90b791dcacef51065a7a4e7)
C         2.38786022342653    0.30319411317532   -2.38896782642356
C         2.18618363199476    0.41182368683098   -0.87099528161630
C         2.91654767741696    1.62927975507919   -0.23610065460548
C         4.44027911979894    1.39371951986063   -0.30418653695386
C         5.11760645873620    1.64459132098630    1.05400844200677
C         4.18483201663737    1.06474710211921    2.10768572113918
O         3.00837939440666    1.92933019731338    2.23104935919289
C         2.24418431010753    1.92906362235565    1.07675519024483
O         1.09054056177401    2.35967506631670    1.09110918472385
C         3.80177596828017   -0.45843592813782    1.93716476488261
C         4.03192081410512   -1.29999157864937    3.34266187486022
C         4.84984983881154   -2.30088206923519    2.51489678959873
C         5.01836246061757   -1.37781748081634    1.34688880124408
C         2.46001252064748   -0.82884372754058    1.20830230322331
N         2.67876293479544   -0.80162708211405   -0.23083492551938
C         2.07084234678897   -1.96925565061718   -0.86378559431492
H         2.01973339785209    1.22470074459209   -2.85083152979410
H         1.67540365084933   -0.46824546496259   -2.71198497910866
H         3.39991777558168    0.06931607349685   -2.72832765602603
H         1.11705722776344    0.59884874299114   -0.73514549376025
H         2.65911784676746    2.47534348040880   -0.88788996829396
H         4.86100241918001    2.05911639065136   -1.07292142408007
H         4.63368871369773    0.42079265552409   -0.75936728281425
H         5.37353909348904    2.71459025133489    1.09857317843601
H         6.09705350428790    1.15855635628039    1.04669155390534
H         4.70826956902410    1.21613599714294    3.05865902399336
H         3.10213644938320   -1.73881789651767    3.71448350446280
H         4.52633322113437   -0.79773715400233    4.18585367830355
H         4.26523972401712   -3.21345337921375    2.38282832292814
H         5.79362213260040   -2.64130023667697    2.95366066582068
H         4.75324465993606   -1.84110017748934    0.37052578861981
H         5.92953430677907   -0.79015473421117    1.45632245921627
H         1.70372327624876   -0.07336217702214    1.46542834763300
H         2.18298558875353   -1.82125954917079    1.57932365209971
H         2.35192402708966   -2.91489444403222   -0.38062006722272
H         2.35869847286929   -2.05230717687003   -1.91650777577413
H         0.97984506773533   -1.92995170850852   -0.88175305737708
