37
 energy: -49.574147958483 gnorm: 0.143359070023 xtb: 6.4.1 (79825abcba525fcdf90b791dcacef51065a7a4e7)
C         1.92192544356527    0.59661574525233   -2.40037886380775
C         1.97362241371517    0.48872399217563   -0.86988833560328
C         2.61801548227782    1.78760111190008   -0.30739575487875
C         4.14218634637993    1.95974289847612   -0.47813604064701
C         4.92679737459322    0.86868737438726    0.27045328897929
C         4.31061036497087    0.69912401651333    1.65178783920750
O         3.32655639280088    1.71422358312551    2.03646166917129
C         2.29985001128344    1.98999076519173    1.14977360568558
O         1.25755245892597    2.49253951997555    1.57118401669642
C         3.70526943883885   -0.72740873954913    1.95913550021501
C         3.57993525254584   -1.18020782484026    3.54528461848979
C         4.92781318402943   -1.90102929863821    3.40519112016648
C         5.01223242972174   -1.70935338358068    1.92167464576447
C         2.49665164193760   -1.05752187618703    1.01095833915111
N         2.75236978071652   -0.63205411413412   -0.35772491735317
C         3.04124615626224   -1.81224862251094   -1.16842942760256
H         1.86466764034856    1.63913005855931   -2.72885314997393
H         1.03780507760255    0.04003110344733   -2.74037618932861
H         2.82402575664512    0.19916559892668   -2.87194320334520
H         0.96522392083742    0.43799387056876   -0.44914645177195
H         2.07712114935018    2.62532123663559   -0.76846145051504
H         4.26961869826719    2.94948931528785   -0.01458727017043
H         4.41894763964143    1.79727539514766   -1.52129996829301
H         5.99734187259467    1.12570627821282    0.28660908914132
H         4.94232043437589   -0.07670597241872   -0.27871927119105
H         4.99896069734482    0.78458844291804    2.50038984513055
H         2.82409603926292   -1.95579396107411    3.69525813991611
H         3.56836651474261   -0.32165886212991    4.23116755367098
H         4.86070108175150   -2.90683491777985    3.82453403960606
H         5.66664924383467   -1.48782186361175    4.09980273986705
H         4.73787930357323   -2.62928487336646    1.35894961668354
H         5.94418396436650   -1.30028384714804    1.53220602179708
H         1.62746719084559   -0.57580367105121    1.48138957867140
H         2.29010604592063   -2.13287091229355    0.99504330359847
H         3.91410712410782   -2.37928560463099   -0.81732922659655
H         3.50162371383871   -1.50113931199597   -2.11142793916140
H         2.22675583614261   -2.52543281224414   -1.31026212544818
