37
 energy: -49.582953511102 gnorm: 0.146446828092 xtb: 6.4.1 (79825abcba525fcdf90b791dcacef51065a7a4e7)
C         2.46930853622780    0.39986650435692   -2.37906777095174
C         2.20528397603587    0.43250358257785   -0.86713512920365
C         2.62976561167419    1.79996780844773   -0.26002805755683
C         4.12900456368764    2.14251050640658   -0.38975440255852
C         4.88599394516216    1.00589133719404    0.31838863620208
C         4.32956070657319    0.84019247796405    1.72531766219280
O         3.29940095305915    1.81016296403784    2.10570097646148
C         2.28139017438485    2.01000474272986    1.18912769752043
O         1.26592216185359    2.55922660275533    1.61773734888443
C         3.81027348123356   -0.64462378693964    1.87214204859327
C         3.80274187574730   -1.12159383440620    3.45613939413303
C         4.72556672494338   -2.29907993290568    3.11276570662401
C         4.96696538448159   -1.79089712984379    1.72418213910055
C         2.42154153422653   -0.89380615805816    1.18069186278496
N         2.70027570708301   -0.78903346683885   -0.24445318362212
C         2.46873593479960   -1.98960791541041   -1.04355316313483
H         2.28066212631895    1.36957863384018   -2.85032229083814
H         1.81253362867220   -0.34265017860534   -2.85274399153196
H         3.52088259747296    0.17487273257762   -2.57321801569971
H         1.12872011970615    0.45799997474124   -0.67523672382532
H         2.12650364323543    2.55478448769214   -0.87962665688985
H         4.40171766794681    3.13091199818705    0.00950050205549
H         4.38416514638683    2.22342836051996   -1.44783231097113
H         5.97578396428071    1.14264004057282    0.39612389767845
H         4.77459812429619    0.08303914034454   -0.25740199799296
H         5.05380456799161    1.04625293126338    2.52172561961537
H         2.80143972104248   -1.38655995196617    3.80614766366748
H         4.28718398794245   -0.36187240978955    4.08527750864946
H         4.35191645579766   -3.32489902039956    3.12160530620712
H         5.68552866373340   -2.25940948260664    3.63812629021209
H         4.79997184796901   -2.49316064145136    0.87733967426465
H         5.87590854631389   -1.19964115607733    1.61557242070275
H         1.71240914656075   -0.09238405762153    1.43306753236479
H         2.03310247541836   -1.88003802211467    1.45592219712021
H         2.26394479798976   -2.77042540656746   -0.29852081431771
H         3.35422466243548   -2.18895595036590   -1.65523344615867
H         1.68013682254051   -1.84405536026313   -1.78454478518889
