37
 energy: -49.574553565184 gnorm: 0.140139683583 xtb: 6.4.1 (79825abcba525fcdf90b791dcacef51065a7a4e7)
C         1.97652430912129    0.40049490198349   -2.25036860980923
C         2.01412284707337    0.46605621698915   -0.71707066855171
C         2.79501542234125    1.75957024152532   -0.34862744304043
C         4.31702661257085    1.76601627492327   -0.60420967141285
C         5.08497127003858    1.45646202880311    0.69226237986644
C         4.27928095978356    0.93953876861069    1.87555303579166
O         3.19662468237584    1.89085171567363    2.13941357205416
C         2.38123589424003    2.13771293798477    1.04827199245231
O         1.24357525249323    2.56510836910327    1.24723836250878
C         3.85025408067982   -0.57750530166833    1.97757821257414
C         3.83343890514541   -1.28115824019807    3.47464016874613
C         4.60338396534969   -2.48298307761511    2.91002847219076
C         5.03763848503352   -1.67335074586820    1.72655650505497
C         2.57167257257190   -0.93183230571073    1.13588152784706
N         2.70203541012377   -0.75052473724733   -0.30281286700707
C         2.59968183994326   -1.99072553968050   -1.06765022455480
H         1.30532721159296    1.16602207283067   -2.65220504973001
H         1.66405984884751   -0.57204633548345   -2.65482253442764
H         2.98057328330712    0.57667074537791   -2.64403377503600
H         1.00648363584518    0.55782653907031   -0.30149125815568
H         2.36478558176424    2.55030270089536   -0.97836369260962
H         4.41345828962961    2.78288808937372   -1.01333933529703
H         4.60487652147369    1.03683125196060   -1.36356144558447
H         5.48177761341631    2.42116882281041    1.04478300652955
H         5.85882977319234    0.74118440282825    0.40050736536006
H         4.93725152769179    1.10631611479635    2.73608529079253
H         2.81158018996898   -1.47074240447832    3.81402408456730
H         4.44035948816031   -0.74548259379870    4.21785922764062
H         4.03776601513324   -3.37357413333362    2.62909900033401
H         5.41186530125892   -2.80112276998582    3.57654889703637
H         4.82486350261123   -2.24185780014630    0.79396357228430
H         6.00453518700020   -1.17071095905599    1.73117979935031
H         1.69662037156849   -0.40367115761398    1.54105932662083
H         2.38113738760731   -1.99563076888949    1.31285358104081
H         3.10328282620153   -2.78195601906452   -0.49578577887307
H         3.27700111338580   -1.89371712234988   -1.92193979405705
H         1.53808668185048   -2.22152042674054   -1.17670129335769
