37
 energy: -49.580154140506 gnorm: 0.143491097888 xtb: 6.4.1 (79825abcba525fcdf90b791dcacef51065a7a4e7)
C         1.78005736706198    0.52551132834525   -2.32758580324971
C         1.92587549208040    0.39078081474942   -0.80531801615345
C         2.50805050955854    1.73853896379871   -0.29214912328294
C         4.01522425968166    1.88181329244646   -0.59178493038960
C         4.91485622218966    0.89162442317788    0.16755092384969
C         4.44818654897286    0.76182048183340    1.61042779910845
O         3.35693533716492    1.63794777801169    2.04440369149263
C         2.30309450803765    1.91036144043777    1.18906775985183
O         1.26524733552101    2.40475510141042    1.63062673687227
C         3.85989030291233   -0.66948754180556    1.92848569304031
C         3.69388316795266   -0.91917493172099    3.55535464081608
C         4.65807842189732   -2.10956686266809    3.45902567918778
C         5.09619791757718   -1.72922888466883    2.07769236506623
C         2.59654371940879   -1.10834234056254    1.10378364172785
N         2.71623660998049   -0.72269581992154   -0.29502256062990
C         3.21958555850103   -1.66198921331232   -1.29398110729246
H         1.18767032402256    1.43399662507680   -2.47503737333101
H         1.25636379673080   -0.23500963508737   -2.92290618992679
H         2.73336043083472    0.71480943295786   -2.82708957041665
H         0.92473020664714    0.30694904775000   -0.37271525646569
H         2.02107396161180    2.61648391550488   -0.73823179982692
H         4.33984116444538    2.89129722114453   -0.29804951179874
H         4.19695774490260    1.77223455233801   -1.66236837955952
H         5.90961357926867    1.36319818655443    0.14607419584528
H         5.02515837615478   -0.10153397740246   -0.27637460567690
H         5.17895474685328    0.94599831669808    2.40623686643129
H         2.67394759678392   -1.16016317179816    3.86676262959624
H         4.06345351814120    0.04437522129658    3.93306409684237
H         4.04739725351756   -3.01023380353052    3.37034064573367
H         5.37044439371618   -2.13300452239329    4.29034379423176
H         5.12945171537623   -2.50895223393663    1.28451601434884
H         6.06525014727682   -1.25462369447864    1.92522908421085
H         1.64653367621580   -0.70645949439629    1.48432362882238
H         2.57309769752718   -2.20307423584568    1.12116998549978
H         2.53326981750054   -2.48548607067765   -1.53379808438180
H         4.12142975460475   -2.11450881363232   -0.86985170994897
H         3.34393062681988   -1.09645970960980   -2.21964701425899
