37
 energy: -49.579238642125 gnorm: 0.137339367581 xtb: 6.4.1 (79825abcba525fcdf90b791dcacef51065a7a4e7)
C         1.94050658019112    0.62639814598428   -2.41456518529073
C         2.02260960545382    0.50914444801516   -0.88609368328531
C         2.64659089356018    1.78254189417370   -0.24747924267948
C         4.14659169488307    1.94758530487640   -0.57096050873624
C         5.09332555983939    1.08621248213474    0.28234743325143
C         4.56205762562570    0.75306465779268    1.66917482109391
O         3.56598338906365    1.75694465549669    2.05235151373936
C         2.45026779954030    1.87765089304380    1.24179739441142
O         1.30911073305709    1.91315353557637    1.70334510362034
C         3.91665778484127   -0.66980753656322    1.90324675667273
C         3.46044760602227   -0.95152487235748    3.46821076098728
C         4.41580729557580   -2.15265179219068    3.44440548133023
C         5.01277501785637   -1.86709208876824    2.10024306951582
C         2.62929564447793   -0.92248924773240    1.03859522573836
N         2.79440104612736   -0.61706792333767   -0.37532360693730
C         2.77729296184089   -1.82105586200465   -1.20216749124312
H         1.56890043209293    1.60817029792159   -2.72447197742786
H         1.18679120660940   -0.07913059795702   -2.79032547222805
H         2.89642183561705    0.43808859740380   -2.90942886293921
H         0.97987146820859    0.42291586890542   -0.56714758703563
H         2.12421848479183    2.62855073751195   -0.71472581644574
H         4.44956991506144    2.98460296093553   -0.36236278744824
H         4.29755806908345    1.73792592873393   -1.63135457713686
H         6.03307908621623    1.65656773890724    0.21955062123844
H         5.26987551801955    0.19506437960634   -0.32616322278099
H         5.41046964967819    0.97706436540388    2.32589155482827
H         2.40304782849042   -1.20003138404211    3.59258542081962
H         3.75897972989756   -0.09192093012175    4.08435619859463
H         3.84012832260411   -3.07441625414789    3.33980404692671
H         5.13095865721971   -2.27349379947784    4.26480791281183
H         5.01721587495472   -2.52559663456022    1.20327312635834
H         6.01464571194506   -1.43835900515725    2.10088785041658
H         1.90516957515029   -0.22092851433464    1.47710814134323
H         2.38112027973731   -1.98095756174420    1.17029087318780
H         3.27259402594352   -2.68062709349738   -0.73046555633039
H         3.22612391539520   -1.71222407574693   -2.19448251636350
H         1.72562321483653   -2.05768218491248   -1.37578033759329
