37
 energy: -49.580340822246 gnorm: 0.157430021915 xtb: 6.4.1 (79825abcba525fcdf90b791dcacef51065a7a4e7)
C         2.13409992213168    0.50383311886205   -2.34964098759300
C         2.08181060808116    0.38013662708529   -0.82036681701581
C         2.56867713053003    1.75005627469341   -0.26809583233362
C         4.07102038416022    2.02513353750662   -0.48985950786402
C         4.90342403995111    1.00440172885052    0.30488155428807
C         4.32132249531878    0.84159740407302    1.70172653351895
O         3.24824328711043    1.73694165713561    2.14175269022618
C         2.32464798547607    2.09799064639090    1.17583104744783
O         1.40986080277060    2.79280762979532    1.61958768473924
C         3.83822749351985   -0.64853771456573    1.90669613152398
C         3.66225150783533   -1.07519657791199    3.49528022295197
C         4.77960393335551   -2.09613963525930    3.23996955028315
C         4.99571937625617   -1.79738615974012    1.78782359376534
C         2.56974244872685   -1.02596618702334    1.05978108561464
N         2.79598204092971   -0.80483998711181   -0.36135484061057
C         2.76625445252757   -2.04789517322684   -1.12782762501683
H         2.22302055909107   -0.51039342937134   -2.75144633950914
H         3.05425373723879    1.03192781646558   -2.63509924521864
H         1.29429879678274    1.01305499713259   -2.82875649866541
H         1.05605966901041    0.12102256596491   -0.54259043863105
H         1.93470695416886    2.51319165268380   -0.73993211757484
H         4.25813549174851    3.04075979983062   -0.11011529160472
H         4.36856461985014    2.12163098865209   -1.53548809987208
H         5.97245905527722    1.26474531206541    0.34696031881506
H         4.79734586951551    0.04828772153011   -0.21491984071863
H         5.11167846299365    0.97318939308914    2.44957459048950
H         2.64695820646300   -1.38285390005707    3.75956288114873
H         3.93195593678204   -0.23478006189292    4.14998257782136
H         4.43583393590144   -3.11412064471453    3.43370730654831
H         5.64921271692248   -1.99588705685602    3.89787106057218
H         4.63632991981619   -2.56884147331578    1.07095612544281
H         5.94730011560032   -1.36574096747629    1.47841465161261
H         1.76904945277457   -0.45110730939670    1.54688231670727
H         2.43115684412521   -2.07471069241325    1.34301055870308
H         1.79301153211372   -2.30607178331281   -1.56695359463898
H         3.19485283430199   -2.87934739981964   -0.55952021056244
H         3.42099680805798   -1.85271920145965   -1.97950918659694
