37
 energy: -49.571900418678 gnorm: 0.158674071647 xtb: 6.4.1 (79825abcba525fcdf90b791dcacef51065a7a4e7)
C         1.93837001408222    0.49454389767497   -2.38193842258840
C         2.07667135017390    0.46642590731185   -0.85327999008848
C         2.87404980206804    1.68952010182704   -0.31760255145477
C         4.38216716527950    1.36490756076538   -0.36332550640271
C         5.05189851132312    1.52509614289221    1.01224788788972
C         4.17323475323327    0.97838392240547    2.12830303597342
O         2.87626823219533    1.64864124667888    2.25238484697591
C         2.37839475218004    2.10139866091719    1.04262371958886
O         1.38700793344460    2.82612428514266    1.13455375322467
C         3.88949108747409   -0.55492022023499    1.87460261213704
C         3.71246577378348   -1.34751163400041    3.31580545659326
C         4.85768898942145   -2.28131176343313    2.90051542458507
C         5.23848350377722   -1.46324596461264    1.70450067387083
C         2.64368286339196   -0.89768688488679    0.98059785580500
N         2.71020394957671   -0.78913827467366   -0.46974713961586
C         2.34947529649025   -2.07101055959119   -1.06993772688632
H         1.06908304665091    1.04616387735074   -2.75351005022244
H         1.88821945688372   -0.49158638482132   -2.86369090548134
H         2.83904234765164    0.93713266120157   -2.81440698881857
H         1.06574894778159    0.56569969105227   -0.44751476073476
H         2.72759318422128    2.53109961503176   -1.00841196484838
H         4.87431153372217    2.10044564971826   -1.01715428534252
H         4.53577406365336    0.31085987850614   -0.60117397230068
H         5.16958607536541    2.59707137981164    1.23451799475741
H         6.07031059983227    1.12743470165308    0.99486253518906
H         4.71370982120417    1.00286100063295    3.08147840525475
H         2.72837917644183   -1.82330505308996    3.29315521885947
H         3.93295739845895   -0.66309576933020    4.14684934260211
H         4.37536567754351   -3.23408199056856    2.67337982561220
H         5.72560737272376   -2.44779953224311    3.54712497738038
H         5.33260075982254   -1.89643318704726    0.68386664848373
H         6.16594703371669   -0.89497820909278    1.77113791012287
H         1.81933716334597   -0.30225012119269    1.39862756090576
H         2.50024641188876   -1.96513990458144    1.17873915482044
H         2.73109840297677   -2.90961671855304   -0.47178049173274
H         2.63448900380163   -2.25747891353045   -2.11012013019524
H         1.25810357917164   -2.05475407363321   -1.09797691545083
