37
 energy: -49.574348873856 gnorm: 0.145752960704 xtb: 6.4.1 (79825abcba525fcdf90b791dcacef51065a7a4e7)
C         2.38047741172730    0.37037069152416   -2.36337483229933
C         2.11450330798427    0.32104897671934   -0.85223630989006
C         2.88006106989738    1.57685735495150   -0.34667844521709
C         4.41048942436847    1.38159618030732   -0.30738476009277
C         4.90284988376160    1.75426335534471    1.10155206215294
C         4.12279850647813    0.99756737771979    2.16712907431194
O         2.85658279368930    1.73472304539087    2.15921609413493
C         2.27511200061028    2.05742741993348    0.94507324349275
O         1.38407762720483    2.90547815961105    0.88681631448983
C         3.82766721570649   -0.54453240614369    1.99185300685908
C         4.09641240833686   -1.50085237802546    3.31466547827977
C         4.96884559633186   -2.37617161813683    2.40435714412649
C         5.12116005647975   -1.31674334416858    1.35597771110891
C         2.46339770029609   -0.84571165132437    1.27294317015581
N         2.56862899195688   -0.88923056388332   -0.17851848298055
C         2.02379210165867   -2.11029304864923   -0.76648925831946
H         2.17241091181711    1.40178594762083   -2.66487245220391
H         1.79696354685912   -0.35280023167122   -2.94953935991193
H         3.43320813427257    0.14335019045528   -2.54869684022524
H         1.03562510475253    0.42623093887399   -0.70586901911371
H         2.74475066002289    2.42088570449778   -1.03677300874035
H         4.87820010390705    2.01026484198469   -1.07987221150583
H         4.68364178487837    0.33365497303461   -0.44299633296352
H         4.78628826023599    2.83183582048175    1.29555266129918
H         5.97138485719230    1.54023490496753    1.19113377235390
H         4.42694180020410    1.24472385584682    3.19068475684502
H         3.23883260959084   -1.81251820966698    3.91694458493378
H         4.69049809455946   -0.97757849498430    4.07684800479415
H         4.40820237394767   -3.26485891217707    2.10785835271463
H         5.91090098053674   -2.74117548326029    2.82674114255689
H         4.87250012085648   -1.74567595049568    0.35979093390486
H         6.06502599520670   -0.78626132963035    1.23243307241415
H         1.75602292907966   -0.10054213977454    1.66432907955306
H         2.24232350921658   -1.84973865179734    1.65023075198390
H         2.42322751110488   -2.90022060002423   -0.11598607984084
H         2.20845599034713   -2.08147330417946   -1.84493785175836
H         0.93377884697530   -2.05317231968987   -0.79389402041234
