37
 energy: -49.575676756797 gnorm: 0.138632630417 xtb: 6.4.1 (79825abcba525fcdf90b791dcacef51065a7a4e7)
C         2.22419082309004    0.70065907594208   -2.42717773066642
C         2.06651767996560    0.49755298157682   -0.91370439271551
C         2.78343000639479    1.71604025065107   -0.26559364061722
C         4.29333120806804    2.00798648120061   -0.39539182569790
C         5.09343546045015    0.99847572917714    0.44551471345494
C         4.38079353358507    0.69318870850801    1.75527217939358
O         3.37225672138138    1.68133527870725    2.14665838878839
C         2.39811342832480    1.86970678176190    1.18128268031877
O         1.24221181657291    2.22579736681300    1.41283639377003
C         3.67903999969014   -0.71816756022697    1.86256330638688
C         3.66107765278268   -1.15677126243853    3.45752689729290
C         5.05174935492038   -1.77116207509801    3.24647986466569
C         4.84342520459475   -1.86209725440458    1.76559525100891
C         2.35031536634876   -0.86627594923113    1.03713836038710
N         2.62038309373815   -0.74425569840619   -0.38830294518710
C         2.40373622997063   -1.98503384357550   -1.12795432342194
H         2.07718036702888    1.72440480674408   -2.78542695276564
H         1.52643357224662    0.11062427626741   -3.03713446021268
H         3.24058934353651    0.40213996737867   -2.69540321081605
H         1.01998509505232    0.57702632180603   -0.60561622075065
H         2.20287663287750    2.58171388020478   -0.61271063845468
H         4.56427384102209    3.00108176874741   -0.00671940354814
H         4.65521828420111    1.97996909524721   -1.42468101215474
H         6.09194953595464    1.31119064707715    0.78839118333263
H         5.29542127278029    0.05439321577858   -0.06781751908403
H         5.06598966237507    0.86498430640788    2.59327471036871
H         2.94570149323975   -1.97090098445455    3.60157056462333
H         3.55698831286802   -0.36815684561491    4.21576714270163
H         5.25653982625037   -2.70002664999337    3.78245460883766
H         5.75484355025563   -1.01069772884981    3.60208771265887
H         4.36362530975430   -2.81634596280822    1.45349830348955
H         5.68712004091464   -1.55636191618212    1.14732161740063
H         1.59068270554022   -0.19442738816266    1.46189395996708
H         2.13894196834501   -1.89892147783654    1.33421483476688
H         2.56278802435212   -2.75362750082544   -0.35941357759178
H         3.08349746846618   -2.14731983261656   -1.97031446204381
H         1.39832904761735   -2.15806999390082   -1.51700132601706
