37
 energy: -49.577758722873 gnorm: 0.140075983813 xtb: 6.4.1 (79825abcba525fcdf90b791dcacef51065a7a4e7)
C         1.95857589242013    0.70100382631296   -2.46040230572606
C         2.12559260349509    0.54024512304514   -0.94284620491315
C         2.76109583646394    1.78912834356295   -0.26819931204069
C         4.28782152181211    1.95515058214323   -0.42125857799904
C         5.12599581971562    0.92390094187110    0.35359019669853
C         4.53174525145628    0.66429823197632    1.73054190678464
O         3.46290930786824    1.60212506270757    2.08386029396979
C         2.41658860307458    1.78948738498095    1.19701329818244
O         1.34337777653591    2.10253820656906    1.71348582302422
C         3.82354331570409   -0.74077887561405    1.87233150375620
C         3.44448566800666   -1.11556482133335    3.43836327937739
C         4.83584451292941   -1.75456364722487    3.54692558117559
C         4.92384800917919   -1.93536269164478    2.06225238839310
C         2.59369761410264   -0.87376217876040    0.90353503347435
N         2.85172299508961   -0.64782214329204   -0.51141459829602
C         2.42314523157283   -1.81516992563688   -1.27768525583192
H         1.21711578872489    1.48781583045630   -2.63120539219582
H         1.51815719184370   -0.16778847937042   -2.96861954062888
H         2.87910796995896    1.03344989812295   -2.94643195668467
H         1.08336780374244    0.59042405948508   -0.61464756575192
H         2.34009777656763    2.66505815413198   -0.78047935626316
H         4.72803085765984    2.92040833768809   -0.12935512646821
H         4.50993488216945    1.75986007301279   -1.47183497062587
H         6.14987394284469    1.32854532222189    0.37152809479226
H         4.95611462297047    0.02625122856593   -0.24721378677921
H         5.21862029187437    0.70754040556416    2.58352988961264
H         2.67112525983912   -1.88825363721612    3.42477982155935
H         3.21705380383739   -0.19209908158420    3.98896417205255
H         4.80655553719201   -2.62672291382849    4.20303367676384
H         5.47839640029107   -0.97651895949363    3.97222306324437
H         4.52389848898607   -2.88997918330835    1.65365628647314
H         5.92534103684943   -1.73854983139650    1.68037050672148
H         1.81105769034719   -0.20704879288477    1.29315999749444
H         2.26904329539001   -1.91037220560648    1.04256438602110
H         3.06874989592568   -2.65907592017860   -0.99892755290670
H         2.65983319947101   -1.64116222307496   -2.33204896109049
H         1.40164358042142   -2.12868292424450   -1.05321550409814
