37
 energy: -49.574215989507 gnorm: 0.144793046177 xtb: 6.4.1 (79825abcba525fcdf90b791dcacef51065a7a4e7)
C         2.19793874469410    0.47446796945699   -2.37715162340732
C         2.08156189460172    0.33092450873909   -0.85315483691906
C         2.54719994009287    1.68421627096229   -0.24446382852586
C         4.00561215841833    2.00592727119668   -0.63358810998386
C         4.91615182596216    1.27909938719627    0.37092239352226
C         4.44956329436290    0.99853511879212    1.79222537569197
O         3.27373705490582    1.80786153438812    2.12265954027008
C         2.23071316826312    1.87357967122358    1.21482058977169
O         1.09825585272293    2.18816061764055    1.58238750521507
C         4.03134595518370   -0.51682623304847    1.94929286926754
C         3.76089721865442   -1.03041488032143    3.49838580550989
C         4.49447632179583   -2.33826278069431    3.17069650887128
C         5.10527932163312   -1.74981121407516    1.93565325032467
C         2.78701536379690   -0.93355110543410    1.08514391531620
N         2.96207470933222   -0.71292635390597   -0.34327739263023
C         2.61489562751146   -1.88867592750915   -1.13739962017654
H         1.84305067525941    1.47308734690542   -2.65069085768955
H         1.68447605255595   -0.31182513036823   -2.94737324374860
H         3.20888491535615    0.29299493240894   -2.75021985543252
H         1.05497200985798    0.04075054409450   -0.61154132232672
H         1.90412420566287    2.47800300596672   -0.64854240413875
H         4.20996534345286    3.08144882581697   -0.52310014245919
H         4.20111642801061    1.75781133924478   -1.67828904595190
H         5.82700626096723    1.88587389133024    0.49156304957831
H         5.26950641787794    0.35580730091412   -0.09627382873312
H         5.22331781430160    1.28280826518644    2.51454693245518
H         2.71033743953603   -1.16686320733749    3.76861689332789
H         4.38336941169522   -0.51449838906875    4.24272048332528
H         3.83959336844330   -3.11249265927517    2.76610550924395
H         5.10457661194710   -2.75103397927990    3.98094461003774
H         5.01530513910622   -2.29774226761061    0.97135078042572
H         6.06146211598144   -1.26619549065593    2.13411651031040
H         1.95542659028855   -0.36045075677032    1.51971924739063
H         2.77051800291240   -2.01645255114955    1.24744685980880
H         3.04972992547896   -2.79735974655260   -0.69933407464981
H         3.02864248583172   -1.72143864050749   -2.13681341351245
H         1.52650012532001   -1.96030335914538   -1.18646531034876
