37
 energy: -49.578677369341 gnorm: 0.143071209206 xtb: 6.4.1 (79825abcba525fcdf90b791dcacef51065a7a4e7)
C         2.51663059379609    0.58352195076897   -2.43284839839036
C         2.18172272718472    0.50941043312794   -0.93649995815398
C         2.70272777953515    1.78455920515308   -0.21450868123470
C         4.19728182074944    2.14334881166391   -0.35400805875005
C         4.98967234524398    1.00303088372918    0.30795484737172
C         4.38760972886203    0.65995799813827    1.66307289172537
O         3.38961566516005    1.65324294203240    2.06823482592892
C         2.30107764192921    1.84527648357315    1.23480975478781
O         1.26870682348970    2.30556248572706    1.72355656842200
C         3.65973352907280   -0.72233274114439    1.89836947025077
C         3.71058628170532   -1.06842917316971    3.51522937833015
C         5.04742181810929   -1.77192143280244    3.24328436106416
C         4.74037177455607   -1.94446135544639    1.78704343236843
C         2.34526233142512   -0.89589255081860    1.05527158410144
N         2.62913976361799   -0.75509050897287   -0.36574805723916
C         2.38395312073935   -2.00632291122016   -1.07838500520211
H         2.38894428746228    1.62957226619813   -2.72862678138705
H         1.80796733316395   -0.00492520288869   -3.03166372179183
H         3.54165319628043    0.31231026099488   -2.69722955910780
H         1.11029646767403    0.44028227641374   -0.72737831556143
H         2.22865688528784    2.59507343246201   -0.78481274444622
H         4.36502784113696    3.05600474399969    0.23729122936879
H         4.62176810826318    2.19626926157177   -1.35809684416899
H         6.03813577498478    1.31888358945724    0.42348303929660
H         4.95696611867331    0.19314243062682   -0.42594640323587
H         5.09021481805569    0.74388905884589    2.50006594645172
H         2.88895577823722   -1.75656997143110    3.73134136755652
H         3.69484954720313   -0.19359064562471    4.18012445671069
H         5.23090170955434   -2.73737242657502    3.71892810387973
H         5.91406279727468   -1.11881618587683    3.38988368059025
H         4.24538476834235   -2.87691763220003    1.43531029995518
H         5.55717522719802   -1.84807506133668    1.07213143915316
H         1.54639107776825   -0.19260967455304    1.33102056783456
H         1.91065492321357   -1.87182804970455    1.29601256380362
H         2.45662086031869   -2.84366996176405   -0.37109590234590
H         3.06192954731887   -2.13875829316322   -1.92737942441588
H         1.41183409417061   -2.02528457914276   -1.57514222774988
