37
 energy: -49.571029937930 gnorm: 0.145564178273 xtb: 6.4.1 (79825abcba525fcdf90b791dcacef51065a7a4e7)
C         2.25047373092543    0.47566231973775   -2.39799101580509
C         2.10492383140415    0.35374234826168   -0.87461803532348
C         2.61031000573081    1.67835357866481   -0.23531215624717
C         4.08839171063697    1.99573655371480   -0.54583490341236
C         5.04674626989296    1.19622826393990    0.35346795724391
C         4.44668067190355    0.96696645122872    1.73328085243743
O         3.36127729738606    1.88112925368525    2.09793027551021
C         2.28937099410949    1.87578354708908    1.22192938862770
O         1.17677772319556    2.13635925191770    1.68101835924095
C         3.94130988232377   -0.51902870295843    1.91304378754633
C         3.57317049434084   -1.07438661936934    3.42719559892147
C         4.60179042067138   -2.19517405259902    3.22283982826999
C         5.06316369322424   -1.70828120140942    1.88315424923009
C         2.70101019344072   -0.87551577324875    1.01674847523356
N         2.92393849791025   -0.76213785421138   -0.41753075178609
C         2.43605397067334   -1.98812748578127   -1.04400388958168
H         1.57282183170012   -0.14473164361179   -2.99289364901383
H         3.19901312515470   -0.02749317270548   -2.63071626355978
H         2.30741099996320    1.50752920552700   -2.75314366342295
H         1.04049853402598    0.23854733810478   -0.65057852326408
H         1.96983554945754    2.45989965274361   -0.66647508361743
H         4.13732519495131    3.08213783558901   -0.37834699422927
H         4.24136809089097    1.68828521712024   -1.58181530101532
H         5.86826096577339    1.92678902327180    0.41494843276292
H         5.43836342164665    0.19827118197134    0.13825244068806
H         5.26389894092480    1.11204559980284    2.44907554872618
H         2.52648553794287   -1.34031206623465    3.59764527511263
H         3.91504518106914   -0.30010630696728    4.12811447237502
H         4.15165233535006   -3.18955749154244    3.24681361621436
H         5.45336071945947   -2.14036262587289    3.90908187359881
H         4.95286211808771   -2.33379555948856    0.96949764464198
H         6.09750092914542   -1.36622301493332    1.90961252799231
H         1.96427024065547   -0.09733161847928    1.26268195915400
H         2.41969273953949   -1.89211698936340    1.31115023921121
H         1.39312944784427   -2.10723334059319   -0.72025891887662
H         3.11911179829064   -2.82427357367727   -0.86435304843717
H         2.51724131562973   -1.96981193411935   -2.13268008274307
