37
 energy: -49.576502626175 gnorm: 0.141683943483 xtb: 6.4.1 (79825abcba525fcdf90b791dcacef51065a7a4e7)
C         1.97240082486158    0.59449519688839   -2.34467167405678
C         2.09118909074760    0.47162550229605   -0.81905480243825
C         2.75429870153735    1.75863920816784   -0.25107291484863
C         4.26422664733273    2.02455081530572   -0.42796395039237
C         5.10874205310077    1.02721442621820    0.38352631408460
C         4.42114236292656    0.79974443241402    1.72217763801300
O         3.38456977938595    1.74706411118971    2.14034747183401
C         2.37716752659582    1.88355418612833    1.20071966540245
O         1.24875387009747    2.28069001822518    1.49310968443543
C         3.83297747211404   -0.65811692115559    1.87901589294174
C         3.51656380770313   -1.04207196674339    3.45669317771316
C         4.70004680506529   -2.01922711712468    3.43387859415049
C         4.99661008407015   -1.80234056243293    1.98139870165776
C         2.59531419571325   -0.98769597612380    0.96888468261459
N         2.73873703103950   -0.78567165145804   -0.46580150820046
C         2.64554219205698   -1.95422146008185   -1.33721212972890
H         1.68353332292816    1.63588227565051   -2.51810300688460
H         1.20181915779475   -0.09993921695072   -2.70663603966448
H         2.88863667518548    0.37271682129605   -2.89734765098756
H         1.05575026334070    0.47440633352576   -0.46645943884209
H         2.21991537353285    2.58020355676983   -0.74744951815443
H         4.51640612294449    3.00294499620760    0.00777078596466
H         4.52446083066993    1.91108010217469   -1.48180740977753
H         6.13588873071739    1.40369165469630    0.50850570570534
H         5.24689360596687    0.06290435960232   -0.11308247514840
H         5.20393771927375    0.88263040304364    2.48481585331149
H         2.52512522948753   -1.41227714087067    3.73113169226801
H         3.66305789021575   -0.22999235752142    4.18246294178832
H         4.34621353613837   -3.03052818551178    3.64380626655233
H         5.52328385267243   -1.57416086947965    4.00247441591751
H         4.62863125034855   -2.59748951182642    1.29544479008833
H         5.99130975147947   -1.43316606980239    1.73272196156031
H         1.78852547146304   -0.42665732829939    1.46200452045961
H         2.36736576525280   -2.05093312598475    1.09871608412866
H         3.42483058556459   -2.69029053699648   -1.09721116200490
H         2.84197501930458   -1.61262665335041   -2.35834376577212
H         1.67023667058630   -2.38923832850476   -1.56454918170394
