37
 energy: -49.576614209923 gnorm: 0.141080699142 xtb: 6.4.1 (79825abcba525fcdf90b791dcacef51065a7a4e7)
C         2.36965584782861    0.56076534943820   -2.42228505382084
C         2.03091770503985    0.40626951632564   -0.93295568452031
C         2.50302549891696    1.72596808673401   -0.25898833469597
C         3.99931802930926    1.99100800360961   -0.52869995844315
C         4.86335888958111    1.00578100803280    0.27700703622922
C         4.33851021250582    0.78206165844024    1.68803745518936
O         3.29153635910348    1.73945118892982    2.05411715970098
C         2.21199395414119    1.91539624511069    1.20557677605389
O         1.25428708842322    2.53551373104706    1.66901827833570
C         3.78448196433228   -0.67569754230772    1.94079573744331
C         3.74968457359842   -1.13157643823104    3.53062852176996
C         4.87361580379609   -2.14264023803899    3.26508514542509
C         5.03431690954325   -1.72477182209966    1.83531294785600
C         2.47993097827535   -0.95422877300550    1.11053151784193
N         2.71863239422582   -0.71557197708422   -0.30572163863244
C         2.74084014814211   -1.97364413549841   -1.04755160622332
H         1.68417907862186    1.29903348935940   -2.85017716528782
H         2.16956895049562   -0.26632235259147   -3.11722722723853
H         3.38886732602410    0.84740705464655   -2.69278276700307
H         0.93829584785584    0.36268077796505   -0.96020062382762
H         1.93827714352803    2.55265492410147   -0.71128406175198
H         4.29859295290317    3.01956940322607   -0.27728319134411
H         4.21820203464320    1.90516103624525   -1.59448772718705
H         5.82978214505475    1.50549637097025    0.44640572002706
H         5.06503003570362    0.02346320539287   -0.15886052611691
H         5.13134814663976    0.98425402161257    2.41727127562223
H         2.76983863923385   -1.48256487215804    3.86533420358568
H         4.08110560580495   -0.34704971353819    4.22514524448802
H         4.48879945495790   -3.15737793157594    3.38433804047798
H         5.68140283172140   -1.90937571644788    3.96663499443698
H         4.81981378437148   -2.42719485273800    0.99937435222136
H         6.03028694183975   -1.29179260054468    1.74514617946513
H         1.74637982316707   -0.28833513722008    1.58732074069581
H         2.16048473353019   -1.99460123031755    1.23247072551650
H         3.59266202131687   -2.58676836983187   -0.72325740477974
H         2.91756320440678   -1.76415919536396   -2.10720613138880
H         1.80821356997749   -2.50407736804783   -0.84508940726268
