37
 energy: -49.575377498460 gnorm: 0.150897857912 xtb: 6.4.1 (79825abcba525fcdf90b791dcacef51065a7a4e7)
C         2.18523887230577    0.50184591825551   -2.44648192197437
C         2.12343947234905    0.44768497214732   -0.91352337551835
C         2.53422863050106    1.78496758136090   -0.23407535807287
C         4.04458703674312    1.98676676228245   -0.47897626904405
C         4.97237441792712    1.10925077685130    0.37868268802041
C         4.35606285013704    0.78525872823513    1.73209044130888
O         3.29723172161617    1.68968652097244    2.18777711642709
C         2.30126426481820    1.89636714251212    1.24877700481653
O         1.22172371289528    2.34178646492414    1.63957107803535
C         3.79732898744404   -0.68741103413208    1.85438607653371
C         3.74087745233637   -1.02520327734956    3.47281567918693
C         4.98349793634649   -1.91908231877936    3.35941683750918
C         4.83517861189217   -1.95090964050077    1.86888814023457
C         2.49461506087379   -0.89889511332200    1.00175334984542
N         2.89503975845363   -0.66746540432920   -0.37875700663945
C         2.78295119298401   -1.89987432411396   -1.15474340176931
H         1.35163917426466    1.08033530297795   -2.85693470161116
H         2.11582017573623   -0.50374577443703   -2.88354011107418
H         3.12788740174425    0.87692155004096   -2.85250721923424
H         1.08933215219909    0.32039252717538   -0.58053163660770
H         1.91683804539545    2.55275757421869   -0.72013158727253
H         4.23386706114485    3.03448543129905   -0.20117580124538
H         4.26986028499370    1.85317434106354   -1.53849904549171
H         5.89306533578905    1.67399567894933    0.59263758775173
H         5.21048233118965    0.14486222010695   -0.07832867895578
H         5.12552416347255    0.99821469921805    2.48297975390245
H         2.83956429373044   -1.62253893895245    3.63450532006610
H         3.68407939724518   -0.18844218351078    4.18294272617093
H         4.75009534658421   -2.90652821769327    3.76249411443673
H         5.93222981473473   -1.48098291411770    3.68664939331433
H         4.29941558771515   -2.84422692334492    1.47755035702897
H         5.65480479361097   -1.75495660476509    1.17796651156242
H         1.68227599295351   -0.27485869437897    1.40115715496799
H         2.37460497518669   -1.98632619500381    1.05055060724348
H         3.01697843610036   -2.80919541071878   -0.58460747186975
H         3.40449898976547   -1.87600854948834   -2.05534956496294
H         1.75913273117983   -2.04090470736978   -1.50694914542681
