37
 energy: -49.579794003600 gnorm: 0.144551375654 xtb: 6.4.1 (79825abcba525fcdf90b791dcacef51065a7a4e7)
C         2.09942741224110    0.74468833495032   -2.43161551583372
C         2.06784257842195    0.46591021818869   -0.92231116557589
C         2.63290319011692    1.72709989142092   -0.20898851552915
C         4.14427150504813    1.95193011374243   -0.42601165112396
C         5.05620837492391    0.98571132572391    0.34935600624470
C         4.41522274351411    0.66756675628608    1.69265224464064
O         3.39467041399844    1.64234844469656    2.08639953351187
C         2.31181201162615    1.87007595149641    1.25456594775158
O         1.16406654032381    2.05796784369387    1.65941547017892
C         3.75074441008363   -0.75633263847880    1.85658826052522
C         3.53310966523987   -1.01536053076486    3.47589193988745
C         4.83447346185563   -1.82768809177895    3.42528650759312
C         5.06173853343575   -1.72935395959043    1.94766396252047
C         2.47794137184122   -1.04141433998898    0.98053320613468
N         2.73404750980149   -0.72861035874504   -0.41813464504757
C         2.78646417025184   -1.92387038205482   -1.25608238130594
H         1.79455526669465    1.77769930155022   -2.62642625453304
H         1.29957648087252    0.11801318006565   -2.84943151127640
H         3.03916997249275    0.45966302085658   -2.91095778439116
H         1.00902179496600    0.50579105422251   -0.65069954974184
H         2.11072893320681    2.55128758563627   -0.71393598561878
H         4.42514084606586    2.96692754768378   -0.10725304076994
H         4.34575526242505    1.92742776698517   -1.49838631105932
H         6.04231749687172    1.47411717165075    0.38722142087721
H         5.13692873866936    0.02889070420499   -0.17369138715610
H         5.15274176129772    0.97944954994025    2.44101748555870
H         2.62350913768321   -1.59200804834818    3.66410288199251
H         3.44437715573610   -0.11368392945261    4.09780947154241
H         4.64070706881068   -2.79689577497491    3.88906287116117
H         5.66810091245038   -1.30313250340757    3.90383757188352
H         4.95499086655312   -2.65724113287415    1.34282235349315
H         5.89284853223666   -1.12881496381755    1.57865657517120
H         1.63462200490666   -0.54141030075803    1.47817564633175
H         2.30678253908686   -2.11948992464958    1.06855377171629
H         3.57106824473768   -2.58864665130489   -0.86987321586817
H         3.13524545283724   -1.64819256051003   -2.25625039027818
H         1.84683153007219   -2.47919729701478   -1.28515478759442
