37
 energy: -49.574456183487 gnorm: 0.138659542319 xtb: 6.4.1 (79825abcba525fcdf90b791dcacef51065a7a4e7)
C         2.16309930761970    0.68180543054468   -2.45185473925726
C         2.10343348539105    0.55808540041492   -0.92285251769320
C         2.76725783379633    1.80699837765315   -0.27611015427843
C         4.29578532102919    1.96567460987650   -0.41861421584462
C         4.95635795451396    0.86584304209452    0.43015955647446
C         4.34827794847952    0.75063709341162    1.82065932607279
O         3.29092763687314    1.71817528363732    2.12503321761854
C         2.31684866116356    1.89491027943750    1.15739479143841
O         1.18536236010300    2.31487941913307    1.40212082345701
C         3.72467101984751   -0.69713451953216    1.92538599133539
C         3.64701493460083   -1.14617756803697    3.51564841558781
C         4.97981254064577   -1.89419106964081    3.37383500575137
C         4.95437371745856   -1.77398230414590    1.88065380073062
C         2.47460766159014   -0.98297769591780    1.01741746561629
N         2.73266365433152   -0.63627480116764   -0.37287481541016
C         2.57400022054706   -1.84605921499533   -1.17586798400024
H         1.74844742612002    1.66238075582896   -2.70591330357251
H         1.57952998830403   -0.14538474621978   -2.87877010051745
H         3.15308302500574    0.51726480162621   -2.88427020530753
H         1.02354848149401    0.59491301474225   -0.75268527661332
H         2.36189569290687    2.64497698694142   -0.85954535607906
H         4.44172311205806    2.94011944905373    0.07115495888367
H         4.64634559881788    1.87985391806965   -1.44862672577995
H         6.05257071932972    0.93327490505870    0.50861827851582
H         4.88463376908791   -0.10678840222618   -0.06425298692337
H         5.14621911601856    0.85312224944236    2.56499955470963
H         2.79294074345094   -1.80812242254710    3.68209695407948
H         3.62081053091487   -0.30557598495177    4.22302233852763
H         4.88679444922542   -2.93138511659335    3.70181915857184
H         5.85941268044743   -1.38531947312850    3.78182728669895
H         4.67378096880342   -2.76683756708805    1.46386947807354
H         5.85008367167986   -1.45618167428663    1.34748985541116
H         1.53221692332292   -0.65490835616158    1.47905561235524
H         2.32850966413035   -2.06460006904340    1.10707423791169
H         3.04241709666786   -2.64904244264838   -0.59063971340918
H         2.84700222525313   -1.62442125898116   -2.21236651914891
H         1.53717396660367   -2.15459878469714   -1.32398057620267
