37
 energy: -49.582292442548 gnorm: 0.121248664705 xtb: 6.4.1 (79825abcba525fcdf90b791dcacef51065a7a4e7)
C         2.32252146966780    0.39710170165509   -2.39872671434385
C         2.15598917365780    0.37550062646371   -0.87277951054881
C         2.92849671186803    1.62572653851184   -0.36396778185034
C         4.47095285918392    1.59219667611146   -0.32413526478365
C         5.04322157549673    1.76004895019500    1.09386922422365
C         4.16922455076016    0.99976953732281    2.08110158153152
O         2.88329312230316    1.70185867105669    2.09574846155135
C         2.28687923675455    2.10099750968809    0.91195459194800
O         1.30079318977457    2.83735313573500    0.95600997929640
C         3.88873757606858   -0.54588058961042    1.91320681913804
C         4.02298781360006   -1.43529850999828    3.30155740716364
C         5.03912199371814   -2.38718915668364    2.65552317806232
C         5.10139497669614   -1.52985758473092    1.42841599319944
C         2.52071918676251   -0.91509718941588    1.23425439751900
N         2.55864002762769   -0.86426810503870   -0.22028568960584
C         1.86469857081797   -2.03543355769805   -0.74978280912058
H         1.99391885117441    1.39542044741802   -2.70432434891743
H         1.72902266335520   -0.36065708784827   -2.92845707143866
H         3.37400276367701    0.27336377683160   -2.66928269427650
H         1.08144827642901    0.48002824794697   -0.69699373636544
H         2.57464689822240    2.40803590579710   -1.04931852254813
H         4.84196484122728    2.27858079680213   -1.09998406974485
H         4.78633026033535    0.59453068772662   -0.63459163487636
H         4.98662103437560    2.80926909790499    1.42298731866682
H         6.07763136236821    1.40580139057475    1.10412138987433
H         4.54359138826195    1.23458121650279    3.08408146576817
H         3.13982297569034   -2.02490266029457    3.56176049373471
H         4.45500303441004   -0.95369953384191    4.18987088555825
H         4.61745910643437   -3.37273345502676    2.44839928673844
H         6.00136061782392   -2.55536365524839    3.15041566810864
H         4.92445913181788   -2.07858162914265    0.47668143814366
H         5.97583876173097   -0.88003914545866    1.40308960195375
H         1.68278479807774   -0.28735970120907    1.56988991453199
H         2.44485102740696   -1.96303919067668    1.54304481542977
H         2.27884930070446   -2.88924513442239   -0.19645331248392
H         1.97087733250772   -2.13670544369977   -1.83442688506536
H         0.77721851912515   -2.08771351159899   -0.66734109962027
