37
 energy: -49.578810031415 gnorm: 0.142074910604 xtb: 6.4.1 (79825abcba525fcdf90b791dcacef51065a7a4e7)
C         2.13747291893430    0.63451858648191   -2.37931140179245
C         2.05191090178125    0.46142746018042   -0.85634289045501
C         2.64420073735232    1.74602777601199   -0.21003268200393
C         4.13806789698565    1.97605730643650   -0.52200893719232
C         5.02012258036084    1.00566578691610    0.28218161069138
C         4.42638152480463    0.70079345587500    1.65004407887106
O         3.38124776046714    1.62624177551779    2.09502063363217
C         2.31534630599156    1.88925472115310    1.25177242905544
O         1.33237958410196    2.49836463162833    1.67519622469219
C         3.81918436354246   -0.74426420521232    1.84756851450070
C         3.52505203781298   -1.07858525894887    3.44077921679996
C         4.82215330504417   -1.89703152327079    3.50126655279624
C         4.92609308069161   -1.93717900147305    2.00718754008685
C         2.54439970605935   -1.00625964428358    0.96719695507724
N         2.77378561866414   -0.73630878673474   -0.44497056281072
C         2.65987770737897   -1.89123800732069   -1.33193952559005
H         1.89563522175772    1.64778478888774   -2.71519239369906
H         1.47795429657781   -0.04822466691243   -2.93243914791430
H         3.20919586902706    0.61928817890908   -2.59215520080499
H         1.04019220148601    0.37334107290395   -0.44997991668687
H         2.08629309886300    2.62523687699400   -0.56025217565098
H         4.45716538910237    2.95626147112739   -0.13718298298020
H         4.24903004417450    1.94209767537023   -1.60723592731293
H         6.03667302396915    1.41687065757714    0.38178585704579
H         5.06700526905008    0.09889729400077   -0.32705805098806
H         5.23373085240797    0.73789003924593    2.39035929076347
H         2.57895507039657   -1.61912056857956    3.53045053408253
H         3.46939892825015   -0.16927360061871    4.05537713960819
H         4.67440892420915   -2.80454813005802    4.08997927310166
H         5.62265699396536   -1.40556317907066    4.06407835067824
H         4.51259893942469   -2.88626235357541    1.59918456755297
H         5.88446359566226   -1.72788238606571    1.53255269071136
H         1.87367830427861   -0.24138767755303    1.38426203902770
H         2.23886856855233   -2.03401675183739    1.19003317669831
H         3.37205049048679   -2.68331576866170   -1.06340403196227
H         3.14675750955284   -1.66026997419029   -2.28461183114982
H         1.61568884716316   -2.20736633662970   -1.37524305479603
