37
 energy: -49.580444572909 gnorm: 0.146851781691 xtb: 6.4.1 (79825abcba525fcdf90b791dcacef51065a7a4e7)
C         1.81754255023267    0.47696969640601   -2.33397616172970
C         2.00010879384851    0.45877672753772   -0.80981965803541
C         2.62955650043229    1.79517142459269   -0.32343824234128
C         4.15310503410965    1.92519665447092   -0.53266333141669
C         4.98840153491255    1.01753173475972    0.38648122828148
C         4.32399790542509    0.70515208862323    1.71971416220625
O         3.23524890713148    1.60284324360770    2.11409913010156
C         2.33473399489473    1.99578652288480    1.13887725738749
O         1.23189596694650    2.37802839712292    1.53151652405214
C         3.72931179792849   -0.75028878952897    1.87442747378584
C         3.68712463794834   -1.06099608068738    3.49870760349625
C         5.00900088102456   -1.82811145343355    3.35671498323552
C         5.02153360832647   -1.75215640785072    1.86046595405193
C         2.47955729231302   -1.05825969548958    0.97329530299020
N         2.83711234132630   -0.65418555235646   -0.37895723933821
C         2.97783256711800   -1.87379360660212   -1.17035123889715
H         1.31783533588042    1.41111620515499   -2.60906325313473
H         1.25762920934822   -0.37864987689052   -2.73580405972577
H         2.86548478312581    0.44088034760113   -2.64161095244571
H         1.02191383593117    0.44509178680299   -0.32052205175737
H         2.14191680779261    2.68385027815603   -0.74697179319719
H         4.43167855876445    2.96618081919263   -0.31026012915587
H         4.32514719529872    1.71287723965489   -1.58931153794843
H         5.93928710438280    1.56536241183482    0.47638910619294
H         5.18463332157587    0.06429548344780   -0.11195008844110
H         5.01704205772151    0.82039885325802    2.56094164825300
H         2.76281938892257   -1.56693797183008    3.79025767101748
H         3.68109401398087   -0.16256102572440    4.13152167303567
H         4.92805708185371   -2.83576473014273    3.76912307841787
H         5.78501411827680   -1.32164744106879    3.94015484231030
H         4.63150411984984   -2.71622751497597    1.46467946927991
H         5.90689237099743   -1.35662278877120    1.36322318004278
H         1.65530393897954   -0.40995916548336    1.30367755235625
H         2.22470917565568   -2.12236906371901    0.92842201720393
H         1.97000919896046   -2.23817421216298   -1.41161333068704
H         3.62346132323509   -2.58138457184339   -0.64076533573538
H         3.47015374172635   -1.77785851426749   -2.14017545327233
