37
 energy: -49.556610843985 gnorm: 0.147132260832 xtb: 6.4.1 (79825abcba525fcdf90b791dcacef51065a7a4e7)
C         1.17948525383318    0.75865807014938   -1.78879389375278
C         1.98782361166074    0.38061176068354   -0.53964036949334
C         2.69243744791451    1.71994267844244   -0.18126334469088
C         4.13535889163149    1.74351054757200   -0.72835027885923
C         5.04725992994854    0.82937390056591    0.10782750155179
C         4.64554068705239    0.56120762793468    1.55116800246771
O         3.82717735161831    1.67627385755126    2.03456439026018
C         2.68840005120198    1.96769965140259    1.30336911929011
O         1.71303990841981    2.47689583244363    1.85646768344424
C         3.82329193315518   -0.76507691530501    1.79768815095941
C         3.06871287265361   -0.72156809184255    3.26919149317311
C         4.02012915523471   -1.79887855388057    3.80788799693873
C         4.78264000271891   -1.87460659961578    2.52043707984977
C         3.19387909071927   -1.53947188584036    0.58404759133631
N         2.75878149607857   -0.85363475253167   -0.62426770005952
C         3.24401701562439   -1.36557476946247   -1.90333544025362
H         0.34781665393033    1.44182710899794   -1.58975293090681
H         0.76522856915536   -0.13292947027092   -2.27921872716831
H         1.75613511866845    1.19664242181810   -2.60718814768034
H         1.29163851867480    0.07211376999270    0.24561124247109
H         2.09921583946648    2.49531503114165   -0.68505802821664
H         4.56339695175965    2.75153733876755   -0.62167397124221
H         4.09360136439100    1.40059499168257   -1.76365154396015
H         5.98702795171030    1.40268247187406    0.08461953511551
H         5.30924912689081   -0.15807965704239   -0.28191238592716
H         5.47231370803972    0.56748049350101    2.27065582057694
H         2.04130498438124   -1.04233851859008    3.07720661491714
H         3.12154975908358    0.23650564073219    3.80489527029054
H         3.43822214168584   -2.65643780042915    4.15136117852864
H         4.58151701417923   -1.46976058113832    4.68858626587422
H         4.78359234510604   -2.80026569030323    1.90289567882463
H         5.83298370657885   -1.60180873562764    2.62002014898042
H         2.43521500250225   -2.18465665990666    1.04988552297059
H         3.98669313105776   -2.22652475884797    0.26989133493991
H         2.96081462813861   -2.41321700205198   -2.07342572644522
H         4.32570077548854   -1.20191197396329   -1.86931464098198
H         2.86074752215096   -0.55976139120543   -2.53255081057990
