37
 energy: -49.574328568353 gnorm: 0.145791249623 xtb: 6.4.1 (79825abcba525fcdf90b791dcacef51065a7a4e7)
C         2.48750196026310    0.45526285297525   -2.44212693303225
C         2.13815965236332    0.37447584860889   -0.94942874044406
C         2.52723714029970    1.71508905120607   -0.26379250788324
C         4.01264717568687    2.10494495645223   -0.41693057037973
C         4.91619807423600    1.12520791838741    0.35125802732378
C         4.36356944370827    0.83112729941982    1.73857252682453
O         3.23907380846078    1.68794480047313    2.12345778535519
C         2.21653116475898    1.84349828144202    1.20334969255755
O         1.06406596646322    2.10376233833435    1.55064316766865
C         3.84566229320701   -0.65370551954636    1.89003093657168
C         3.80938725545318   -1.08020495366639    3.48796306310001
C         5.10481823932509   -1.89108414814279    3.34542114554473
C         5.16775106212674   -1.61578488943158    1.87404859891831
C         2.56176355873494   -0.86096575031237    1.00831735003738
N         2.80190969470032   -0.81349669347309   -0.42687775295360
C         2.29644975220998   -2.00008601649789   -1.11249170417632
H         2.10565853333807    1.44067202606327   -2.72703792593389
H         2.01073071423102   -0.27430701442256   -3.11105925552537
H         3.56688687709776    0.28531035075339   -2.42913156821266
H         1.06901359840413    0.34569691488592   -0.72016187059237
H         1.94413017391389    2.52583962592838   -0.72160582120936
H         4.21976617533454    3.15622875453862   -0.16669364221884
H         4.26324867606749    2.09423435245476   -1.47913001253143
H         5.90602117874299    1.55108823998124    0.57766792103396
H         4.95349661094844    0.19428803767951   -0.22110291656860
H         5.06503587581321    1.04589071329035    2.55286807183831
H         3.00248063588978   -1.79808039402735    3.65789067910272
H         3.72241730372032   -0.27955338582282    4.23567213484400
H         4.94012538315881   -2.94722166013608    3.56778858876819
H         5.95068530414050   -1.57202514592071    3.96333268480417
H         4.76240576235593   -2.51189357289338    1.35358009545854
H         6.08123630304949   -1.23068965174274    1.42149613904799
H         1.83522911540147   -0.13382453703771    1.39851340620294
H         2.10451627802217   -1.82136788368487    1.26878346544459
H         1.22468597226269   -2.21016791576400   -0.99469289225251
H         2.90327632529074   -2.89361855104488   -0.93544985760578
H         2.40140101014361   -1.90130186023649   -2.19479000788786
