37
 energy: -49.580530695852 gnorm: 0.145247805379 xtb: 6.4.1 (79825abcba525fcdf90b791dcacef51065a7a4e7)
C         2.29218292327490    0.45846910340403   -2.45105681692262
C         2.10608110465192    0.45903648550838   -0.92721946425891
C         2.89620361577561    1.64039939543816   -0.29570524098004
C         4.40997628013758    1.34237640007353   -0.33515739087602
C         5.07296879736287    1.62563481801832    1.02374223690652
C         4.23762129681826    1.06146077519380    2.16410425385562
O         2.96017887858448    1.76901325194811    2.28357676743795
C         2.31651182526434    1.91260690695025    1.06642318961387
O         1.20916488167569    2.44958433778135    1.11074210032553
C         3.87813345817392   -0.44764022322475    1.86530901118149
C         3.93604372309564   -1.30296102713542    3.28011551759279
C         4.97375515810834   -2.24246207227608    2.65045095181471
C         5.05356649006184   -1.47029442329114    1.36901633993430
C         2.55102289134401   -0.77887488369010    1.09211257115615
N         2.63880889420088   -0.77411871667159   -0.36115252920121
C         2.00822315761113   -2.00508588257555   -0.83086726270902
H         1.77275346289454    1.26992699336897   -2.97042088720223
H         1.75958071846843   -0.41545018582256   -2.85062338052493
H         3.35882938875810    0.41270378544752   -2.68407050652510
H         1.05982127398814    0.60858098258311   -0.64536556804471
H         2.72280242897167    2.49881989240156   -0.95900723422769
H         4.89201209273206    2.00260511768627   -1.07167211572712
H         4.60057356574928    0.27085720703054   -0.41702787765371
H         5.28691755961134    2.68064346501053    1.25518972508616
H         6.03691188091380    1.12092997945642    1.13184780478479
H         4.68190913531587    1.10905525715555    3.16490332548558
H         2.98295175310522   -1.71269478502422    3.62515577112114
H         4.21012933030157   -0.68402051023969    4.14583214627488
H         4.48991116321127   -3.22073516970070    2.62088414564276
H         5.94227828813094   -2.29800942346549    3.15837008645425
H         4.73736850195267   -1.94994423878284    0.41604313747493
H         6.05300775858924   -1.04484639427731    1.28144648992649
H         1.66156945281597   -0.22061139610128    1.41777197879679
H         2.28255448144708   -1.79998014701526    1.38290233867055
H         2.57118607556303   -2.79909468298220   -0.32164103859537
H         2.19643772831150   -2.19062125131335   -1.89300407065528
H         0.98462630214937   -2.13272030910684   -0.47295439213382
