37
 energy: -49.573124490968 gnorm: 0.144809109082 xtb: 6.4.1 (79825abcba525fcdf90b791dcacef51065a7a4e7)
C         0.89824517047112    0.56043988811847   -1.20825928971411
C         2.10001201846778    0.31920654134001   -0.28398803453614
C         2.92479037493859    1.63619823877569   -0.22077733285768
C         4.41366369183411    1.66473867304817   -0.62614571002020
C         5.28704768010565    1.06415820010656    0.48871127170466
C         4.48345188675333    0.64734993733056    1.71224221141292
O         3.39446119721433    1.53168743735275    2.13510123784805
C         2.74176922117312    2.24430719991491    1.14386185543099
O         1.99715114729594    3.16917672081676    1.47049078563996
C         3.96229798451295   -0.84227893100729    1.63943885245848
C         2.67252740481594   -1.14645081566860    2.62967922456998
C         3.63804873809208   -1.83528336530375    3.60398050055139
C         4.80918642418450   -1.78717407135624    2.67080880574813
C         3.84375349547374   -1.49907778257471    0.21699939263331
N         2.99072800939422   -0.75700678912813   -0.70027185868039
C         2.90071100442855   -1.50806719270639   -1.94981401799983
H         0.24954233412763    1.27386827047344   -0.69036501572777
H         0.37894781541736   -0.39365071721388   -1.37286437306592
H         1.17150573442465    1.03568823928222   -2.15355933923543
H         1.76458801047922    0.14279528675710    0.74208924638914
H         2.49121470335413    2.35448828763240   -0.92999859123817
H         4.70772582379511    2.71596968710935   -0.76454816896495
H         4.56845551624526    1.06028044245576   -1.52160827878919
H         5.90954669958169    1.90263385849715    0.83776542034639
H         5.96464341002847    0.27041067438772    0.16247680181215
H         5.13693077563140    0.67493286763348    2.59170808643105
H         1.96368631655057   -1.84707582828905    2.18024877658518
H         2.24822944468208   -0.24294406659670    3.08937733142891
H         3.26522230381079   -2.77406209955227    4.01833831654240
H         3.82849875071078   -1.36245552742189    4.57313840261766
H         5.17302381285089   -2.76051212352971    2.27276556334006
H         5.62746309699634   -1.23522701892019    3.13269092705149
H         3.40474124564869   -2.49761325726536    0.35496581436489
H         4.80327692243586   -1.53634973929534   -0.30951318880378
H         2.34891426531283   -0.99865588190996   -2.75150536803938
H         2.41104744414817   -2.48583212475043   -1.90303782174222
H         3.91892203202627   -1.57444179066779   -2.33837984108184
