37
 energy: -49.576917951474 gnorm: 0.144239004858 xtb: 6.4.1 (79825abcba525fcdf90b791dcacef51065a7a4e7)
C         2.43717651494134    0.64305031653146   -2.44718794425322
C         2.21058879282753    0.40424168720384   -0.94774039923570
C         2.55044072184676    1.72042413986786   -0.19217005086482
C         3.99532670912641    2.19373463135217   -0.45705406973239
C         4.97783708204546    1.22805903718554    0.22745059209531
C         4.52019333132292    0.88143919629214    1.63703926293236
O         3.34914787175039    1.60847265293801    2.13386742777331
C         2.26487203227736    1.75233378663267    1.28531622232903
O         1.17266075907020    2.01304768495900    1.79091386619880
C         3.96505084141023   -0.57430810334527    1.89878835920117
C         3.67746028095344   -0.98646942156624    3.47486559879204
C         4.38334894999389   -2.33338428624613    3.26623616621785
C         4.86956375099696   -1.93650412922195    1.90580656298070
C         2.68387238412251   -0.81820131008515    1.02250671308839
N         2.98575263026337   -0.70056946791365   -0.39690850360897
C         2.66123916117777   -1.94396259518116   -1.09132554034001
H         2.19933236438755    1.67029950224627   -2.74078491950294
H         1.76313204453836    0.07516284990402   -3.10310055072923
H         3.47103727981199    0.33999380478663   -2.62998072461976
H         1.12837103539237    0.41278347030512   -0.78900607323965
H         1.85316364914869    2.39594348309593   -0.70636998250552
H         4.12842039659778    3.25322069869089   -0.19155496929616
H         4.13866636703535    2.25511936625592   -1.53727124428619
H         5.97490455184150    1.69211689841597    0.28122817068919
H         5.05358215029769    0.30650609162188   -0.35616135831852
H         5.34015621814705    1.15065636021610    2.31264173134717
H         2.60166182826129   -0.99917373930085    3.66932672359937
H         4.16157094898401   -0.21999994809359    4.09602337331243
H         3.60405275222807   -3.09781695932518    3.24786261067420
H         5.07909095755441   -2.46934681551979    4.10083886238563
H         4.73290128661374   -2.68121315397940    1.09037117154627
H         5.91712206474370   -1.64302412067395    1.96943383456557
H         1.93761537957977   -0.13160668040981    1.44739247712918
H         2.31098499796847   -1.83098420358450    1.20829087416881
H         3.13243498257177   -2.78525119576664   -0.56511592510840
H         3.15396546595691   -1.87549327454865   -2.06626935537290
H         1.58467138174287   -2.11512680603905   -1.15335236993524
