37
 energy: -49.578690452649 gnorm: 0.129814145865 xtb: 6.4.1 (79825abcba525fcdf90b791dcacef51065a7a4e7)
C         2.14004297116723    0.66460494462485   -2.40936178479184
C         2.04274365785881    0.46546593735874   -0.89028608412316
C         2.87131936784703    1.64826366842502   -0.31307386546503
C         4.39772265563195    1.49774740233420   -0.48430387847479
C         5.05797729712910    1.52336087872394    0.90487226693491
C         4.19232723280631    0.88891935675827    1.98406512984331
O         2.95391290015464    1.64184735907174    2.19898993494806
C         2.31510680877642    2.02779707678220    1.03307448008684
O         1.34201301535278    2.78250891576603    1.03804372923598
C         3.92818888544475   -0.66032051640347    1.82287373376191
C         3.74009527192846   -1.33277968975487    3.32254842799288
C         5.04231530242936   -2.11787627625023    3.11318977750126
C         5.22815528574081   -1.64503536557115    1.70373159584264
C         2.59017855893034   -0.98376922711666    1.06532446871282
N         2.60493845937416   -0.77716480342495   -0.37578801883158
C         2.16782980085880   -2.01172813618874   -1.02257999219909
H         1.31859568429866    1.33819858146337   -2.67300146520951
H         1.89985995508254   -0.20746572644726   -3.03294684718508
H         3.08242302831041    1.13854964217283   -2.69470504541459
H         1.04669532486576    0.51547002678786   -0.44100653087770
H         2.53753653173306    2.53743431345766   -0.86524037843046
H         4.79690259324163    2.25140124968946   -1.17955611822470
H         4.60558835833158    0.49395623713391   -0.85897524669237
H         5.15559619892442    2.57228443349090    1.22520832815655
H         6.01687848673607    0.99949609000358    0.94578976174102
H         4.79138469821232    1.02355921819100    2.89195166855936
H         2.91863608768995   -2.05127340919599    3.38804971694720
H         3.68959908839903   -0.68171907153195    4.20642951264339
H         4.93361915727937   -3.20362439398553    3.14970873269204
H         5.81761573333023   -1.88090272109732    3.84929927001274
H         5.01282193153539   -2.44701747489386    0.96301621306586
H         6.14138293608246   -1.10760972568800    1.44927866663793
H         1.73451048243695   -0.51129327351038    1.56875093482273
H         2.33053096883098   -2.03618572563067    1.22118520849420
H         2.74373315934937   -2.88004903428741   -0.67466807113679
H         2.25253093249526   -2.05247917215818   -2.11306051248468
H         1.12489645742894   -2.25285461716334   -0.80742713508757
