37
 energy: -49.579037450636 gnorm: 0.137629841098 xtb: 6.4.1 (79825abcba525fcdf90b791dcacef51065a7a4e7)
C         2.42785240176743    0.51994504490806   -2.44192622758059
C         2.06399475124397    0.48440608933286   -0.95093358074567
C         2.64272953564948    1.71632124058845   -0.19848875588751
C         4.14727498008046    1.95941872517690   -0.44165225024048
C         4.93526028595825    0.95534191268172    0.41701620762065
C         4.32836505435531    0.69610956575273    1.78851177447986
O         3.35668706909979    1.72079489959079    2.17918450377042
C         2.32561372065004    1.85943857984840    1.26591841865297
O         1.28619186081672    2.43940390032271    1.58178011054135
C         3.68680011525805   -0.74148831244756    1.92118701810823
C         3.74606771247493   -1.14034266187331    3.52555832342464
C         5.08724367640613   -1.82653325821415    3.23166343837394
C         4.77116708323700   -1.95636967778641    1.77292237529792
C         2.38084834308765   -0.83311122054836    1.05235629230399
N         2.73238017225328   -0.66335143100779   -0.35025393795599
C         2.45395738505142   -1.83759066642011   -1.17317157789690
H         2.38415193881282    1.53774359575916   -2.84215901926618
H         1.85360817554866   -0.13030745216761   -3.11606918183983
H         3.48188719003683    0.26829888890053   -2.58267210884929
H         0.99396962577621    0.43029194334328   -0.73051876304877
H         2.20067831273505    2.65104690246870   -0.56970556713821
H         4.51229997931982    2.94809203655043   -0.12543040136511
H         4.39036402792317    1.84689808493140   -1.49968358387563
H         5.96760625160357    1.33818219306088    0.40805050440197
H         5.00414590244249    0.00417648267715   -0.11790355068710
H         5.04782261437183    0.83374846655561    2.60379826510438
H         2.93959741477835   -1.85232426819514    3.72051136516465
H         3.62026269263644   -0.30104407697865    4.22371772237411
H         5.37190397235389   -2.76212358850022    3.71708769799248
H         5.89148908632575   -1.10737349220702    3.41902128608888
H         4.20670079460046   -2.89280493387261    1.56635552744323
H         5.61120671608737   -1.94860389781812    1.07878228794658
H         1.68463783704633   -0.07179890118565    1.43253268128871
H         1.98955901140975   -1.83367236308685    1.26462968595556
H         2.71903363785038   -2.78276488846644   -0.68015145904795
H         2.97835482438484   -1.75628433823447   -2.13044860440329
H         1.42044588745354   -1.87584096550157   -1.52321956523863
