37
 energy: -49.578481985475 gnorm: 0.152882198875 xtb: 6.4.1 (79825abcba525fcdf90b791dcacef51065a7a4e7)
C         2.01265639922983    0.51364661867772   -2.35933083063634
C         1.99061500892547    0.44797868110563   -0.82573493047157
C         2.69806933101520    1.74850471180962   -0.34943404558586
C         4.21937060937148    1.85960940689133   -0.58433826210707
C         5.06478131580045    1.06932742193875    0.42913975693668
C         4.46037158948218    0.89506658075629    1.81508539921568
O         3.35683394711227    1.82980334451473    2.05010696943553
C         2.34510774279846    1.88850710086816    1.10705172602206
O         1.31527030713568    2.42957210759689    1.51104390132521
C         3.87952875115468   -0.56642676006270    1.96526765244877
C         3.76403718465708   -1.09733952267943    3.52776502573593
C         4.35332970274188   -2.41922299057854    3.01654772357342
C         5.02298375971035   -1.73112111749907    1.86643179425081
C         2.57122076372546   -0.82982715984007    1.13597758035760
N         2.80217270148291   -0.63724477486789   -0.28855100071060
C         2.71962416656344   -1.90393828121255   -1.01120150737505
H         1.38256869107257    1.37964984036049   -2.58524633350431
H         1.50668194793726   -0.35009682036181   -2.81208970118361
H         3.01537462540775    0.69608879252409   -2.75353323658001
H         0.97335709010609    0.53906382731482   -0.43412974338491
H         2.12916494283051    2.49407385043732   -0.92162081969014
H         4.41928847407795    2.93660285378651   -0.48025953324444
H         4.46135888165362    1.43160766397377   -1.55873020330797
H         6.02701141322486    1.59266701469576    0.31682701958253
H         5.15642401000095    0.01686684316366    0.14713196849243
H         5.15386245642587    1.15149030596398    2.62414223844797
H         2.73795633474373   -1.06778618702968    3.90406745462427
H         4.41912344746277   -0.56344149266195    4.23025377537595
H         3.59407987695021   -3.07535957988931    2.58640595510663
H         5.09576811369713   -2.93920799086384    3.63096225437111
H         5.11455179165709   -2.24652774675514    0.88450800296018
H         5.99722827409744   -1.30968043204836    2.11299361731980
H         1.81719575966526   -0.11803213650011    1.50153705800503
H         2.24118829554282   -1.83535512022660    1.41754820095665
H         3.38728001898864   -2.57096048750297   -0.44905774892497
H         3.21616518520286   -1.78766218300073   -1.97965882737079
H         1.74896413010950   -2.37628385944518   -1.17506558262936
