37
 energy: -49.578324635397 gnorm: 0.146678277397 xtb: 6.4.1 (79825abcba525fcdf90b791dcacef51065a7a4e7)
C         2.14978471665994    0.57105109674560   -2.41469279281121
C         2.14737623920974    0.38791569412248   -0.89049788313396
C         2.75038214465149    1.69801043121287   -0.30846885213354
C         4.27778339321725    1.55831457525548   -0.47996917750941
C         5.04961926931956    1.60202796222226    0.84997861293614
C         4.26437645454635    0.94711686545740    1.97736873839231
O         2.96778196833464    1.60000742216776    2.17571182641284
C         2.26624146824262    2.05326573302171    1.07172492043333
O         1.20346917455826    2.62292841813605    1.32177622726579
C         4.00239882225416   -0.60750505419650    1.87531803692514
C         3.76612363865062   -1.19603719693365    3.40319522494578
C         4.65684656392664   -2.36825558911801    2.96902772322878
C         5.19391225480674   -1.71798224246869    1.73072549124419
C         2.71196847516256   -0.91098128730766    1.03183518392795
N         2.86146506916401   -0.78907281178958   -0.41125094176236
C         2.37326695772387   -2.03210468000790   -1.00293063122853
H         1.36239934678578    1.29689297082549   -2.64093993537312
H         1.80104495772426   -0.32038332791531   -2.95393181045413
H         3.13827861537286    0.85271991864385   -2.78572785287313
H         1.10620180359077    0.51897817432642   -0.58188284478933
H         2.44471853723449    2.56237319737885   -0.91375393200154
H         4.72636369024844    2.33212902098449   -1.12082902911326
H         4.42559910656212    0.54616665405436   -0.86061413904278
H         5.19815136402102    2.67563500554445    1.04412133309680
H         6.08897481580970    1.27354280387133    0.76373713518092
H         4.82339234808307    1.23232153151496    2.87593161083331
H         2.70496033250331   -1.40645926336172    3.56122633770094
H         4.21990665613331   -0.48887524289977    4.11148790264925
H         3.99757740759371   -3.21266358723822    2.75846472490076
H         5.42165991320074   -2.71234645736039    3.67313455267315
H         5.28653677707239   -2.27166915380764    0.76996821814367
H         6.06063266258589   -1.07190337214442    1.86833071211757
H         1.86840563887326   -0.31247909990448    1.40471114247385
H         2.47349937220544   -1.94780873803984    1.29147197205748
H         2.99462037759045   -2.88816581045468   -0.70667426013617
H         2.38934191369565   -2.01870644068918   -2.09725452403288
H         1.33152669855895   -2.29468652121525   -0.80806989948501
