37
 energy: -49.587109146264 gnorm: 0.130247559854 xtb: 6.4.1 (79825abcba525fcdf90b791dcacef51065a7a4e7)
C         2.31651342619781    0.48691823126054   -2.45944699630779
C         2.12800357921800    0.35961760104014   -0.94123322524548
C         2.62940170934816    1.65181407518659   -0.23586080767185
C         4.09825650719831    2.08155126107327   -0.43504255651676
C         5.02251410736218    1.29229925973743    0.50794830159822
C         4.36451418926318    0.82616572544753    1.79879257590404
O         3.26184498329261    1.72044202641232    2.16094424965949
C         2.26444276855662    1.85412602155415    1.21030937697271
O         1.18231893962125    2.31408335682169    1.57633320030623
C         3.82005756631239   -0.65579273554524    1.85590673911602
C         3.71543113441798   -1.06758001796415    3.45468416578146
C         4.99077601376687   -1.91218071373109    3.32768099038816
C         5.05388183531599   -1.72875911938866    1.84206274562803
C         2.56572754154181   -1.00514564550031    0.97648629249502
N         2.80165642727814   -0.83621091232238   -0.45022568512912
C         2.36967163307496   -2.02210620300144   -1.18547527120259
H         2.48623739355633    1.51414909755344   -2.79708649065917
H         1.45396335017885    0.13383685301834   -3.04116374131614
H         3.17494322349683   -0.12610345465034   -2.74480154494145
H         1.06331204191611    0.24485537243415   -0.71823916011876
H         1.99199143117206    2.40918535864077   -0.71232710947153
H         4.14645807489317    3.10754222771056   -0.04041162518555
H         4.48252894585860    2.03877890258169   -1.45567406938067
H         5.87190504464487    1.94508600599511    0.76248662388881
H         5.40550032961660    0.41840237483836   -0.02611708285046
H         5.02227291389467    0.97486895988691    2.66279287411025
H         2.86114480748310   -1.69786560348733    3.71593841520557
H         3.82970918379320   -0.13395502473907    4.02298027375694
H         4.72139567848901   -2.94974238470227    3.53479805126013
H         5.80557208983755   -1.58889454148404    3.98395670596366
H         4.78332978902764   -2.68610432038870    1.34357022535386
H         5.93751631446391   -1.33246082686274    1.34236771125066
H         1.73494188461453   -0.34851394959908    1.27223889920380
H         2.27273131312420   -2.04689419633319    1.14442406344314
H         3.06014516405651   -2.82634152489428   -0.89713447294749
H         2.34954344442502   -2.01306032910069   -2.27977674665863
H         1.33986209017362   -2.30222751132909   -0.95489545758893
