37
 energy: -49.578997447087 gnorm: 0.130245001516 xtb: 6.4.1 (79825abcba525fcdf90b791dcacef51065a7a4e7)
C         2.47976038097727    0.66454301606646   -2.44900501698552
C         2.18374200866473    0.41781661090539   -0.96299906918340
C         2.55563196967856    1.70949296660573   -0.18069980817691
C         3.99457706071118    2.25332928598147   -0.30544333037453
C         4.95619434908770    1.16486622940000    0.20145210626630
C         4.53546338069061    0.84547191717880    1.62886096630501
O         3.43739814667126    1.71645724086070    2.05594483254689
C         2.27853302726449    1.70840101912984    1.29874209695494
O         1.18004411016459    1.88237751243339    1.82749576401158
C         3.96062479428944   -0.61174928162487    1.83370946820746
C         3.71842301655873   -0.79935450787206    3.45936235487495
C         4.28431475364945   -2.21978036281792    3.32467146034090
C         4.99280295362293   -1.86062930727043    2.05433985536354
C         2.71664226965848   -0.98025045756704    0.94743301215515
N         2.88818865555215   -0.76430945445844   -0.48212977455092
C         2.49576660571435   -1.97807414556699   -1.19369892927935
H         2.31514561502606    1.71048769221577   -2.72633446050532
H         1.79625344969958    0.09780726009634   -3.09606167941004
H         3.51079909569115    0.32995455804636   -2.58733165450692
H         1.09803335994841    0.41876940635078   -0.82995538211109
H         1.84297318605625    2.37542535733294   -0.68624383623971
H         4.05999748592608    3.14640959828856    0.33396432936086
H         4.23394276052770    2.53325812257324   -1.33283195655981
H         6.00702200025049    1.48875542819107    0.14451095618464
H         4.85380624746908    0.28045138910281   -0.43331329788848
H         5.39784014740855    1.08497943013370    2.26147313703492
H         2.70249361325174   -0.63096911011057    3.82658522745279
H         4.44231240305819   -0.12102822596517    3.93215531438583
H         3.49554459080561   -2.92615451112038    3.05844851633789
H         4.74731241666744   -2.54279052390187    4.26296885975702
H         5.09861573500922   -2.68386971852784    1.31320430223209
H         5.98410908623915   -1.45179293799264    2.24856223834052
H         1.87539747810687   -0.48230850258731    1.45062343545362
H         2.58561210631100   -2.05698055044528    1.09834137790971
H         2.98240282978918   -2.89880801818356   -0.84423808442941
H         2.90463126856755   -1.81063702740634   -2.19508656513928
H         1.42531172855031   -2.09537231608452   -1.37400473323316
