37
 energy: -49.577234123419 gnorm: 0.136673008470 xtb: 6.4.1 (79825abcba525fcdf90b791dcacef51065a7a4e7)
C         1.45115867864040    0.63085576214053   -2.18573356983470
C         1.93947455619753    0.59980844620060   -0.73063971971601
C         2.82072523643028    1.83085578481458   -0.37477209083996
C         4.32017465315253    1.56309337728096   -0.62344168847595
C         5.11477191438685    1.01073612215480    0.57235061104044
C         4.24127669613017    0.69739456001833    1.77872801157627
O         3.15800343956659    1.63473870362604    2.08641011762368
C         2.46937575864752    2.21803499284786    1.03667367793409
O         1.57567882478615    3.01053763975782    1.33629261601432
C         3.73473227194936   -0.79294669460584    1.91360411437074
C         3.36424445961679   -1.44044517253090    3.39011662422169
C         4.74272534567549   -2.11509740500536    3.41500667868966
C         4.95527148129242   -1.88046010002331    1.95061026026873
C         2.52556267449263   -1.11728682996859    0.96413904000766
N         2.63958680150944   -0.63671619689959   -0.40544438893265
C         3.28443310573478   -1.60392269269154   -1.28988502834639
H         0.82461893382745    1.49276664084338   -2.43586850383451
H         0.87762806627728   -0.29510810175800   -2.32963292445560
H         2.26828304755004    0.78373346459501   -2.89500128470368
H         1.09274815765866    0.76013479031187   -0.05698204275171
H         2.49554794518050    2.64922097713769   -1.03162929758724
H         4.71801212830414    2.57943909031055   -0.76301663106027
H         4.51917621559537    1.00822482910005   -1.54197461397630
H         5.93378018662725    1.66620334499407    0.90697489784381
H         5.68662775012462    0.12128700598458    0.29403207444456
H         4.87145154596198    0.80461212708440    2.66903119226192
H         2.64794843542355   -2.23514972666493    3.16498663519293
H         3.08807675686849   -0.72704700261214    4.17908430865133
H         4.67359836889000   -3.17117758567343    3.68317374395415
H         5.40274286893841   -1.60388246303847    4.12362544960700
H         4.85126449882675   -2.75414027310087    1.26938450322775
H         5.95443415274307   -1.47602538171144    1.79041080296558
H         1.67256598831025   -0.69036888840377    1.51092721778497
H         2.42070264190744   -2.20706577860235    0.99014158163885
H         4.29711278673759   -1.86267035799129   -0.95192340380668
H         3.40454299501885   -1.09675866140921   -2.25235110412658
H         2.63042877075171   -2.47073874103642   -1.40412579286938
