37
 energy: -49.571434133248 gnorm: 0.150938978500 xtb: 6.4.1 (79825abcba525fcdf90b791dcacef51065a7a4e7)
C         2.31798539808326    0.36389184328125   -2.43719479926547
C         2.13298710294189    0.38045239207389   -0.91331295674413
C         2.71526117944942    1.67721569142917   -0.28237400044296
C         4.24863951583565    1.65227554626045   -0.45561008265736
C         5.03915236947650    1.64318057014381    0.86401460706394
C         4.28384829580242    0.98007050249910    2.00695998427150
O         3.02304340528232    1.70354761592825    2.19057706522537
C         2.23425552326228    2.02775124579639    1.10012076241047
O         1.17224457725920    2.61823285699545    1.30009676410257
C         3.83356820372385   -0.53211674159611    1.92675060845621
C         3.92605873812603   -1.25701784572950    3.41085594059166
C         4.70205607655761   -2.44931883679447    2.83446095216708
C         5.07589568062665   -1.56694771705461    1.68278714705355
C         2.53693426282862   -0.89368809759305    1.11633206372167
N         2.80542543306523   -0.76282294395839   -0.30862242310912
C         2.37466600656642   -1.94357437517746   -1.05281517838217
H         2.44679077315601    1.41442828745202   -2.71610745591065
H         1.32703984584323    0.06188831052872   -2.80308310648702
H         3.07076668398278   -0.23563338908137   -2.95489582581733
H         1.07707987443671    0.21152991549623   -0.68311753096642
H         2.32928746072375    2.57818392017441   -0.77856329249138
H         4.57684355921458    2.47857010433005   -1.10386453845250
H         4.56330825991120    0.77451348766632   -1.02279685761872
H         5.29008970210641    2.67820551140426    1.14354831181047
H         5.94309035000938    1.03217851472182    0.79209329258293
H         4.78728434520510    1.15604969940155    2.96447718129201
H         3.01106817609436   -1.58495952263957    3.91142098499199
H         4.50417804958707   -0.66774268308429    4.13625818430779
H         4.04107949098572   -3.31438675018047    2.75221181500963
H         5.57574056692604   -2.84623941838368    3.36193974231203
H         5.05165979691254   -1.98412762301517    0.65148864878346
H         5.99983767375508   -0.99677943324302    1.77657781384114
H         1.65379388142485   -0.30425171440699    1.40175705395669
H         2.33883855521868   -1.94616727498936    1.34510185297857
H         2.64023468913400   -2.84203055102650   -0.47928370960203
H         2.96814162047339   -2.09292837603370   -1.96026367821235
H         1.33455063014141   -2.00524596635339   -1.37915750737373
