37
 energy: -49.563012932536 gnorm: 0.145291914143 xtb: 6.4.1 (79825abcba525fcdf90b791dcacef51065a7a4e7)
C         1.01266610642739    0.54832659676185   -1.53101326767832
C         2.09822446657138    0.40456169095188   -0.45509081040552
C         2.79569659115633    1.77900605423570   -0.24734725277852
C         4.29855842822520    1.78747320930507   -0.59836927171895
C         5.07804851914572    0.85886121682984    0.34845571739589
C         4.43124170713868    0.59820059966403    1.70131206032204
O         3.44629298118439    1.62334171105880    2.05588925582495
C         2.68264332014339    2.33514533929671    1.14673359190601
O         2.06666445822628    3.34704070727958    1.48313210616561
C         3.82501770209084   -0.85738104048881    1.79965043256541
C         2.83099494395606   -1.18402222171019    3.08098917585116
C         3.93373904221908   -2.02867848637380    3.73405574680475
C         4.85847734373603   -1.86616249187097    2.56652201170629
C         3.47374747332704   -1.57952542679691    0.44913635496390
N         3.02589751806194   -0.70669608667360   -0.62664603794506
C         3.08504800177294   -1.37675728616844   -1.92320672791118
H         0.37531842662226    1.40854146273258   -1.30335514468427
H         0.24331056299477   -0.23460228259723   -1.48445281739168
H         1.45984428668868    0.51190624235027   -2.52742169183709
H         1.57002501132124    0.23459812611114    0.48755573665574
H         2.35241236313582    2.49272939817658   -0.95517585073575
H         4.69632648469324    2.81251935228695   -0.64050475984317
H         4.46672534027193    1.29193349139900   -1.55614991464142
H         6.02462925039274    1.38096859988463    0.55767822811992
H         5.27163758903806   -0.08099002801110   -0.17576079880154
H         5.17093026358949    0.58508086198105    2.50998035335484
H         1.89643459152682   -1.70647369605473    2.85971959890764
H         2.63872304795532   -0.23297435022392    3.59694946980277
H         3.79560429522520   -3.10084643883343    3.88693522348730
H         4.17925521545020   -1.56586419283404    4.69563213398615
H         5.04265348404947   -2.73102075260790    1.89102043289362
H         5.78430396770052   -1.33431645811216    2.78456380515938
H         2.67415432565746   -2.31266408756263    0.62801643600709
H         4.38262702219639   -1.96470060285706   -0.02506610548765
H         2.54755549606710   -2.33116154271941   -1.84012318382006
H         4.12670613809648   -1.62127203659529   -2.15373558060638
H         2.84336753373468   -0.73602627789527   -2.77361663313183
