37
 energy: -49.575173297657 gnorm: 0.141559148772 xtb: 6.4.1 (79825abcba525fcdf90b791dcacef51065a7a4e7)
C         1.98895569161157    0.49102939217675   -2.37159548545399
C         2.10655229962114    0.52169879113316   -0.84125404887249
C         2.88587573801438    1.73549714590778   -0.25981561257083
C         4.36890913001584    1.38383679442638   -0.50236212673757
C         5.09041429323894    1.40934447463148    0.85601273311299
C         4.24267953366070    0.87840065755151    2.00316911305069
O         3.11465331353627    1.78877276097980    2.21657670167617
C         2.34708164651290    2.08154334752972    1.10234675706328
O         1.24141010535712    2.59749678594941    1.26910605234967
C         3.71889852162492   -0.60829139066428    1.89688582054605
C         3.74505527527052   -1.25032974777620    3.42125693614652
C         4.92753538637937   -2.13358580652943    2.99984950361420
C         5.01836825053438   -1.56095555085884    1.61835343857249
C         2.45058942974632   -0.96028020719358    1.03882549565998
N         2.69925964988361   -0.72634101756786   -0.37649921496332
C         2.49972025060446   -1.90858835942407   -1.21078076879701
H         1.50460411623913    1.41456206564412   -2.70401218973699
H         1.36859718606025   -0.40557261598229   -2.50692338147569
H         3.01874669042264    0.40186691980124   -2.72614461114743
H         1.11643162645438    0.57037960839229   -0.37891646179422
H         2.62818294775849    2.64510254917342   -0.81940090689165
H         4.77106429910399    2.16693492400916   -1.16247042556485
H         4.51883729313266    0.49469243939837   -1.11728272076887
H         5.48243258251969    2.41849603781931    1.05681124354696
H         5.93040647978646    0.71126819748498    0.80402528863106
H         4.78965310279016    1.02810105202286    2.94107391142357
H         2.82067976018572   -1.77538426392033    3.67653422926741
H         3.89829731593059   -0.61186960601069    4.30248397012061
H         4.72337092896219   -3.20606750233862    2.98998296680517
H         5.81901765019350   -2.06339989210798    3.63186035890814
H         4.87085771244895   -2.32874663515098    0.82655767385217
H         5.91265938713209   -0.97284051169504    1.41360621428309
H         1.57656454809904   -0.47036984733822    1.49149307994563
H         2.28690431182366   -2.03283464638705    1.18756718266884
H         2.94149125710453   -2.78574084347894   -0.71871322982778
H         2.90227119677699   -1.73781400431256   -2.21416083173047
H         1.47041496414108   -2.27283138547913   -1.21019960227160
