37
 energy: -49.582413138188 gnorm: 0.140321006277 xtb: 6.4.1 (79825abcba525fcdf90b791dcacef51065a7a4e7)
C         1.97812916441896    0.46529988336117   -2.36956938269632
C         2.02884279363645    0.40459849713490   -0.83644904674209
C         2.85727850807468    1.61344744863644   -0.31577582046251
C         4.39620165436972    1.50469483049025   -0.35785045250968
C         5.14874728363904    1.60208236669527    0.98028008917363
C         4.23803277377369    1.01255752370675    2.04779255140797
O         3.01667414794413    1.81675952861899    2.13892740097092
C         2.29990900595637    2.10964074834099    0.99138324757634
O         1.25675271002789    2.74265112594896    1.15766308038898
C         3.86454899480085   -0.51670198969851    1.91448412335457
C         3.85477992546408   -1.31461860850480    3.36356602754187
C         4.66951024289639   -2.43665144324400    2.70535517114541
C         5.08533457934482   -1.54927398932311    1.57206845783767
C         2.55632677997622   -0.91116274910247    1.13877350249439
N         2.75302697133906   -0.73799649908712   -0.29336858534769
C         2.58718633000480   -2.01880347624536   -0.97570343111903
H         1.44844100500400    1.36592342067623   -2.69563319715009
H         1.40680959345153   -0.42121917673635   -2.67735401218489
H         2.96921124738460    0.30401505953060   -2.80069354052647
H         0.99445105607936    0.41232640830338   -0.48086667333171
H         2.54199572736933    2.41516924940373   -0.99751051448457
H         4.69734251616453    2.26807063443297   -1.09084840232652
H         4.52123781809668    0.50284843828290   -0.77240232353446
H         5.29302785246363    2.68109801645518    1.14548785766735
H         6.16225039061233    1.20345768327229    0.88276160742640
H         4.62116454508291    1.24412486909428    3.04821362262342
H         2.88222853650929   -1.61064621253915    3.76584738101617
H         4.35441448597230   -0.72160593213542    4.14226804924340
H         3.93633682030738   -3.17293295333663    2.37017800345974
H         5.36588256510792   -3.00841694371268    3.32765269789808
H         4.95809617131806   -2.02329171598834    0.57340904423847
H         6.04929639799825   -1.12753213442465    1.85573866022293
H         1.63822707784638   -0.42301217977938    1.49604309237639
H         2.46466139270071   -1.99690070943396    1.24859370815721
H         3.19665392074365   -2.77614032493568   -0.46415800589012
H         2.91827307470392   -1.87441703991936   -2.00891048935214
H         1.55069608637049   -2.36177333760424   -0.96147863583596
