37
 energy: -49.581599364717 gnorm: 0.141869042608 xtb: 6.4.1 (79825abcba525fcdf90b791dcacef51065a7a4e7)
C         1.99111206032314    0.61447758172491   -2.38646988045536
C         2.01281665339453    0.46608360045282   -0.85865359280015
C         2.64702484688059    1.75224065481782   -0.25673824203703
C         4.15810259511404    1.96687927235421   -0.48577131805544
C         5.00532656596882    1.03755753513044    0.40021696901017
C         4.39939346156129    0.71124723413672    1.75774780252458
O         3.35616358052316    1.66662693569206    2.13943399163651
C         2.37351227206467    1.95821219902916    1.20896976208747
O         1.23727213173063    2.20349190953300    1.61556830493744
C         3.81315546338240   -0.74956015159261    1.89288736032505
C         3.51987754886464   -1.14500957897088    3.47219496511754
C         4.92811028318408   -1.75504450484331    3.49907724498103
C         5.05361743924363   -1.80879771292616    2.00708329631245
C         2.64938097971541   -1.08452056726109    0.89178695022521
N         2.83505133591055   -0.68128102108693   -0.49480340622906
C         2.68726090293491   -1.81016256738267   -1.40986345607573
H         1.35866333775331    1.45193248369341   -2.69741651325438
H         1.45516866097492   -0.19142311548882   -2.90641430411888
H         3.03428915775946    0.72473116594106   -2.69265645049892
H         1.00219859701368    0.37791731770532   -0.44957823570260
H         2.06805822857933    2.49212622815122   -0.82620312407599
H         4.41647127848133    3.00727487532185   -0.23770472211623
H         4.40144076882834    1.67641929997655   -1.50929611877591
H         5.93777706150120    1.57235453437846    0.63878247964573
H         5.09264093554431    0.02887719022324   -0.01274818350012
H         5.07738472705027    0.91425257268808    2.59463033765526
H         2.63394959420546   -1.74545181516804    3.69562192132677
H         3.44554192360472   -0.25434644295412    4.11162357892834
H         4.89521440543795   -2.71132839524299    4.02484948084572
H         5.63587395115343   -1.15425572017046    4.07979045869499
H         4.67909930680386   -2.77248942019545    1.59569843551391
H         6.00360829257692   -1.49748769151231    1.57330823866736
H         1.77644517032935   -0.58471531085689    1.33565333569002
H         2.33773958552249   -2.13435185140439    0.89666848718650
H         3.31427498887030   -2.64025144438037   -1.05702587789984
H         3.15611996081906   -1.57801013466914   -2.37124741995370
H         1.66081404106031   -2.11015150296385   -1.63021809385482
