37
 energy: -49.580673559780 gnorm: 0.140597776027 xtb: 6.4.1 (79825abcba525fcdf90b791dcacef51065a7a4e7)
C         2.53693262911477    0.34487639231400   -2.49552948081114
C         2.19668963212980    0.41873163306760   -1.00037244207756
C         2.56645298395601    1.74529292424988   -0.27771603304938
C         4.03349426902477    2.21388646454338   -0.37817415291262
C         4.89031938444596    1.18051551147363    0.37308999534113
C         4.33710860255951    0.90817726317197    1.76460465780172
O         3.15715342085420    1.67664351763325    2.16948577581391
C         2.21331859879920    1.88599857643542    1.17866008543273
O         1.09440337306226    2.25203035744689    1.54001259256350
C         3.94056980061055   -0.61471560781247    1.90406881269980
C         3.82591474270752   -1.14980320509709    3.46520308552980
C         5.04613327349034   -2.06832559843568    3.31233696252104
C         5.15956277994430   -1.70383708996874    1.86355496821777
C         2.64699849394650   -0.86848815146286    1.04905747591470
N         2.73684206929730   -0.79593707074566   -0.40227739952593
C         2.17221192547364   -1.99252711335298   -1.02107908842883
H         2.18355672755626    1.26132447622992   -2.97849769053981
H         2.00661517679045   -0.43607619434271   -3.05760591551900
H         3.62118148015878    0.25939223554608   -2.60146064178812
H         1.10840612827398    0.50870138744447   -0.93705367354457
H         1.92348438164300    2.46601868147171   -0.80123205141713
H         4.30429676286863    3.21379018619580   -0.00726583024464
H         4.29124911165525    2.14359204375574   -1.43638236746005
H         5.95245394600619    1.44381460910945    0.49527438897281
H         4.95273954147599    0.23631324669675   -0.17480220909790
H         5.04234274487223    1.21700018816190    2.54468729548143
H         2.87387145013152   -1.68651024759444    3.49483348404612
H         3.80141388904879   -0.35006840468557    4.21852872793102
H         4.83712907374555   -3.12879765739537    3.46632955192260
H         5.96257066455982   -1.81621974671905    3.85611040542366
H         4.83089666618320   -2.53471160287815    1.20035878885767
H         6.07503676302881   -1.25844829829874    1.47484740322829
H         1.86458051000409   -0.15192064448271    1.33748894182148
H         2.21254502510558   -1.82475053624849    1.35906128884224
H         1.10573321347090   -2.07662197198959   -0.77160007683641
H         2.74590741809937   -2.82419202261921   -0.60014006836798
H         2.41619929009690   -2.06165935193710   -2.08307418791107
