37
 energy: -49.577540847654 gnorm: 0.148974182071 xtb: 6.4.1 (79825abcba525fcdf90b791dcacef51065a7a4e7)
C         2.24943903039983    0.45965864643131   -2.44529785666276
C         2.13266844345477    0.38974310237028   -0.91618343724187
C         2.63950481728239    1.69765810220292   -0.24447121013634
C         4.10736986452522    2.15885923717259   -0.36508450015739
C         5.03495397075396    1.18472369384987    0.38127351922619
C         4.39609553807957    0.93595000197823    1.74013146247144
O         3.25695175119792    1.79800445879160    2.06567237921104
C         2.19529669973838    1.88444800088489    1.18147481270152
O         1.07163618915473    2.18443746534260    1.58634460952501
C         3.88904795623441   -0.55058549481986    1.91045748256789
C         3.83049034814199   -1.06503329906323    3.48160967252948
C         4.65075840580150   -2.28665880563871    3.04483038864778
C         5.11235592953812   -1.62784902250136    1.78087437752696
C         2.61000518329719   -0.86844959879172    1.05501395147523
N         2.76329317133356   -0.81536321967996   -0.39184232564073
C         2.54373882710738   -2.10275264988703   -1.04604015025452
H         1.62499837438942    1.30420354911537   -2.75323889834394
H         1.93195133746500   -0.49513086514138   -2.88646904470008
H         3.26052552313866    0.64279827997070   -2.81716946988496
H         1.08426907603526    0.29903617505081   -0.61769420706303
H         2.13525670720460    2.51643775961613   -0.77574984198000
H         4.31201122552673    3.18620507439118   -0.02833998796902
H         4.40441237692017    2.14302186648422   -1.41517897653703
H         6.00639998559706    1.60693743360942    0.68196184375560
H         5.04021041518549    0.22479524381254   -0.14228144606315
H         5.03853989735657    1.14819429180246    2.60238046024382
H         2.80887198281243   -1.29822595655708    3.79343644934644
H         4.37043690041918   -0.32555841948061    4.08931864523909
H         3.93530349679665   -3.07953871982684    2.81797541373978
H         5.37042895989841   -2.59171189148213    3.81172107253816
H         5.18769673306767   -2.18870043452292    0.82276556207685
H         5.95732589512030   -0.99348291741907    2.04763789541864
H         1.84638310606599   -0.18729172370143    1.45718913713974
H         2.33707891594453   -1.87116738108181    1.40049657159578
H         2.96321059863178   -2.85067742857801   -0.35949770857413
H         3.14710321240966   -2.15816586410200   -1.95755728558360
H         1.47147220417613   -2.30859581735357   -1.04209415503689
