37
 energy: -49.576086722034 gnorm: 0.148814605956 xtb: 6.4.1 (79825abcba525fcdf90b791dcacef51065a7a4e7)
C         2.17779304179287    0.49640201716892   -2.39180577934744
C         2.02372648730996    0.44437999620779   -0.86528302886670
C         2.73946491841385    1.68981216763995   -0.26917956484897
C         4.25811556939028    1.52925352898400   -0.49234540259038
C         5.08803530899275    1.49639914780511    0.80247366799544
C         4.28303743442068    0.88433117537875    1.93995972950396
O         3.19256787929521    1.83217477933887    2.18333593029530
C         2.28873105165035    1.95571946993313    1.14208429163036
O         1.25123902933938    2.47262552493463    1.55795039677617
C         3.78488245164642   -0.61115514265003    1.83385503846443
C         3.78944449408122   -1.16963892466110    3.39099337038511
C         4.88851451757737   -2.16667768449756    2.99863702964205
C         4.99812946121683   -1.67908701128102    1.58621807816086
C         2.44015132887617   -0.88883143293547    1.07007124175499
N         2.65650493015238   -0.76968664280058   -0.36474724899525
C         2.52244015275883   -1.99479321692584   -1.14876955467668
H         1.84689450215760    1.48322945827648   -2.73046146607743
H         1.45080480140306   -0.26606558394754   -2.70355043849439
H         3.18480452996144    0.20349113568818   -2.69881654199765
H         0.96595558452426    0.44929323606150   -0.58678457353661
H         2.44341392945605    2.62467176534353   -0.76447201541806
H         4.58939018743994    2.27843780330290   -1.22698441492344
H         4.33604057000056    0.53267624678183   -0.93046057416636
H         5.37002802420045    2.53713491067024    1.02548586351336
H         6.02136526143048    0.99785217606043    0.52689034814065
H         4.97136772232076    1.06471653187127    2.77357729479722
H         2.83231551054444   -1.48286245763665    3.81656822844743
H         4.11121817992123   -0.43293814724523    4.14026583531148
H         4.48510253867296   -3.17905694173244    3.06454967793237
H         5.81987617499636   -2.15941834156938    3.57449914388228
H         4.85022430798289   -2.41771154357800    0.76721813990435
H         5.89873590304483   -1.10557431739828    1.36816168691783
H         1.59398681697914   -0.29921308977434    1.45111641316797
H         2.23162234824686   -1.90823598990839    1.41156787148126
H         3.17948641321792   -2.77373172230861   -0.73860668313453
H         2.78676889727128   -1.81008187219094   -2.19471158441313
H         1.50563342508170   -2.39116752642693   -1.18244709406008
