37
 energy: -49.553599399360 gnorm: 0.142408806166 xtb: 6.4.1 (79825abcba525fcdf90b791dcacef51065a7a4e7)
C         1.03730774482305    0.58105606179512   -1.25625863966805
C         2.20348655714483    0.31601369888761   -0.29371305742999
C         2.91100531350251    1.70098129198795   -0.29169560872355
C         4.41312840245067    1.87952026810118   -0.59768893366335
C         5.28881198303573    1.31768188378816    0.53541233311653
C         4.57412988418741    0.75941600806723    1.75774288738461
O         3.47043108510788    1.68454295682288    2.02746935351800
C         2.71149216820543    2.32537687033745    1.06324278832132
O         1.84570020357173    3.15155969844147    1.35367760415837
C         4.02564167925148   -0.71979636637585    1.67415290387847
C         2.91028815050481   -0.95990865403073    2.87204157888773
C         3.66419050912553   -2.21811608903409    3.32429149407116
C         4.85535121247978   -1.87313859353574    2.48356912736637
C         3.75946717756553   -1.49166823205710    0.33171613334677
N         3.00113293532259   -0.82762987345426   -0.71885068081510
C         2.53931969384806   -1.77160640668508   -1.73333934797960
H         0.49548053944316    1.50703441476775   -1.03947008789826
H         0.35523054186619   -0.27980581405546   -1.22903753262703
H         1.48685496484909    0.67902050980880   -2.24743712591872
H         1.95949245977061    0.13381767407748    0.75687548574859
H         2.38905026275721    2.27006074841033   -1.07312683161610
H         4.60342999026266    2.95065043734256   -0.76255218204323
H         4.63740510811881    1.28516500184177   -1.48517147316040
H         5.84133238088900    2.11938325031251    1.04959264062741
H         5.99780602549199    0.55663270115910    0.19817113277915
H         5.14351362363936    0.71618134534773    2.69325804796806
H         1.87431780293677   -1.11977543437095    2.56135383650627
H         3.14949789109818   -0.16616540922287    3.59344709999169
H         3.10725138072559   -3.09735004731826    2.99449774802820
H         3.93784064052264   -2.45047659837997    4.35881003336457
H         5.22768103639867   -2.76582588450993    1.93340285208873
H         5.67587200372182   -1.52569935229952    3.11093581059584
H         3.18691161730155   -2.39227165056745    0.59616499026360
H         4.67566299300726   -1.80237457797911   -0.18144729036962
H         1.56737122128079   -2.19421335735557   -1.44453476294611
H         3.20274643907430   -2.63562305081347   -1.62693030713037
H         2.43192429290871   -1.34386751451092   -2.73216283006599
