37
 energy: -49.577045547517 gnorm: 0.138431555481 xtb: 6.4.1 (79825abcba525fcdf90b791dcacef51065a7a4e7)
C         2.03353600907721    0.63265750469839   -2.34570844246323
C         2.01196008435630    0.39080592056315   -0.82987309656827
C         2.76394575597374    1.65027754388023   -0.31318080399538
C         4.28046926424606    1.47214829424428   -0.53747590624093
C         5.06344251462895    1.60405587306431    0.78008087917187
C         4.34116675508292    0.94740438073029    1.94783506972817
O         3.17632903895860    1.79869941894848    2.20320376151145
C         2.37272188025154    2.00789082739273    1.09557397025978
O         1.24735895656564    2.46739605625109    1.29290472133295
C         3.85583754096918   -0.55560591033748    1.91162021365559
C         3.76325613321898   -1.19479549172786    3.43460086929930
C         4.72414492031474   -2.28566181904311    2.94196702919296
C         5.09018731731938   -1.59857452333522    1.66188445065661
C         2.59874556353988   -0.99982133751640    1.08025747570168
N         2.73184743712134   -0.78376529302623   -0.35337850882950
C         2.46095408511995   -2.02522584647950   -1.07375546087359
H         1.55341051062486    1.57063342776094   -2.64183440821428
H         1.45939293095490   -0.14189524989699   -2.87247331422659
H         3.09932158310011    0.61226016151899   -2.58614469696234
H         1.03636957036196    0.53810344336507   -0.35765343710269
H         2.46035047859506    2.52287426648993   -0.90759491716539
H         4.70595317489826    2.06750356574468   -1.35919968296628
H         4.36052138437102    0.44713780497171   -0.90371168207885
H         5.14459350030643    2.66611865099964    1.05904760402775
H         6.08651670783185    1.23799521606639    0.65793820510172
H         5.04252340365842    1.12837946265539    2.77039362046590
H         2.77055808048883   -1.54462625387337    3.73038431148001
H         4.18135403324744   -0.55207818261401    4.22186459204648
H         4.13073650067479   -3.20177906264008    2.96632080073984
H         5.56454476276026   -2.54569032162886    3.59405421150679
H         5.08856538151584   -2.21017670683663    0.73229143694096
H         6.05778636916102   -1.11447767392121    1.79211376987852
H         1.70156565937353   -0.46129594530723    1.41774557690129
H         2.55756513747179   -2.08602415690683    1.21351488553356
H         2.76216607142642   -2.88604887378218   -0.46142905993378
H         2.88866879778605   -2.03450903598941   -2.08120602753464
H         1.40530531216673   -2.04132989576544   -1.35212396431367
