37
 energy: -49.576011363481 gnorm: 0.130065255172 xtb: 6.4.1 (79825abcba525fcdf90b791dcacef51065a7a4e7)
C         0.90309634563968    0.51369785243494   -1.04989857250851
C         2.25023657768465    0.36273997952895   -0.32938528818781
C         3.06294587373970    1.68843564640870   -0.35689420443802
C         4.57863717404748    1.57223574754843   -0.62346379853943
C         5.30657725831779    1.20190808749367    0.68013248168619
C         4.40608713589581    0.67972479085286    1.79052225016571
O         3.39242676398766    1.69763005628678    2.07883596926010
C         2.74354102861327    2.26573156857286    0.99597067622965
O         1.92952914739743    3.17131994881618    1.17987428097040
C         3.96583793739516   -0.83354976891464    1.68062867731710
C         2.70381737758061   -1.22835655352894    2.67462887414760
C         3.64258523219172   -2.11638835246252    3.50293988782185
C         4.85923294689420   -1.72275186185318    2.72223120706298
C         3.77379507095190   -1.47171871224733    0.25773322464953
N         3.14410171108466   -0.68969209836340   -0.79660498618912
C         2.64005652208128   -1.44996178515610   -1.93742876366806
H         0.40142834302768    1.37043232235427   -0.58908931222540
H         0.30034056808433   -0.40469085631037   -1.03254580976024
H         0.94631042546842    0.83790801705914   -2.09256095055030
H         2.02272921763151    0.15945691839465    0.72103425332606
H         2.63281972311679    2.44081043031411   -1.03205859089317
H         4.98077746512094    2.53742315648198   -0.96611651650795
H         4.73728143747506    0.67530627281570   -1.22473994547344
H         5.83149396326105    2.07552877522029    1.09682733959969
H         6.03132458345203    0.40265189183668    0.50256305908307
H         5.05011577151699    0.76543047178526    2.67320982081147
H         1.85614332693431   -1.68420479265956    2.15600578392030
H         2.39286588731521   -0.33804903295179    3.23884270779666
H         3.43544313642344   -3.18735870883457    3.54889755242652
H         3.73170032697429   -1.74265369059057    4.52835946597618
H         5.28808501699895   -2.59091308518324    2.17397485238623
H         5.63857039590421   -1.14429773692618    3.21779282910443
H         3.08854648889931   -2.31064256646501    0.44609653840407
H         4.72968496840512   -1.76787689450781   -0.18707543394246
H         1.70200828101150   -1.99200822304324   -1.75593574717572
H         3.35180453766197   -2.23783989929980   -2.20322103402762
H         2.44494686333746   -0.88108713090731   -2.84872264277684
