37
 energy: -49.577504147595 gnorm: 0.151634692533 xtb: 6.4.1 (79825abcba525fcdf90b791dcacef51065a7a4e7)
C         1.77059767187845    0.72378365271259   -2.35523580136498
C         1.97966127038861    0.46993568387986   -0.85571317650834
C         2.69125108302358    1.69606019613580   -0.21619715216344
C         4.18209365917980    1.74763546169195   -0.61193730577513
C         5.06306126030889    1.07817920122969    0.45676611739927
C         4.42187069148510    0.73641782426120    1.79415055717319
O         3.33344880637080    1.63232406364534    2.19346639599141
C         2.37458504968606    1.92179971803806    1.23786532164605
O         1.41083190135866    2.57198429062871    1.64402548583804
C         3.83645607407915   -0.72956754047589    1.85796749288371
C         3.41012326589401   -1.02897373687953    3.42806335405758
C         4.59399467743972   -2.00391928561775    3.49062823506059
C         4.97987578435452   -1.88293034020313    2.04801087573988
C         2.63565266443496   -1.09431623241974    0.91255689839429
N         2.80264302807837   -0.66973725319066   -0.47003319691161
C         3.01886260478719   -1.73381173499978   -1.44704141114104
H         1.23230469526722    1.63437123772635   -2.63644893856554
H         1.28328653298538   -0.13178605162367   -2.84265943945052
H         2.77058493474729    0.80031707599699   -2.78916279686625
H         1.06034078824965    0.18133200506611   -0.33800420665923
H         2.15457161277483    2.56336792441647   -0.62445653473361
H         4.46352624834807    2.81113392044723   -0.63387263790471
H         4.27763189349945    1.21514725979299   -1.55983616292354
H         5.94746943112955    1.70234227482344    0.65832977646845
H         5.49110126033139    0.20105207434462   -0.03621442430087
H         5.13397536666856    0.79510918013246    2.62524499885130
H         2.45739026167303   -1.56327067841881    3.38174443343571
H         3.35488083446328   -0.25228468236344    4.20354897835837
H         4.40832649697849   -3.03623655835245    3.79368901847855
H         5.40788303186887   -1.65577816043261    4.13521175617565
H         4.72422303249502   -2.73476463628027    1.37926350326303
H         5.96685912141181   -1.52824755399320    1.75200179101298
H         1.72974384525876   -0.60291581538981    1.29556401230382
H         2.55621832902926   -2.18621381780955    0.93975592147084
H         3.96129667405146   -2.24845984890566   -1.21542986240528
H         3.09792083839490   -1.19773254332756   -2.39801543503999
H         2.25593367561749   -2.51138037431470   -1.37308768967335
