37
 energy: -49.577491306769 gnorm: 0.139941368262 xtb: 6.4.1 (79825abcba525fcdf90b791dcacef51065a7a4e7)
C         1.82399364741992    0.41837326005387   -2.33939111068924
C         2.01856836221654    0.49327720444245   -0.81845568934838
C         2.84151221859143    1.73364768690133   -0.36793754669405
C         4.36651501302851    1.56306781082248   -0.53271267031990
C         5.06847498732299    1.48485263919296    0.83386597065855
C         4.26966017942485    0.92200917621005    2.00075305029729
O         3.10592383569093    1.80150695906718    2.13846537022326
C         2.37523656519826    2.12603036880529    1.00834593970852
O         1.23521662778977    2.56778787171047    1.15576045451249
C         3.89582805743720   -0.61277035516634    1.97631430947659
C         3.79198644348972   -1.36124703837576    3.44791354056119
C         4.68986008335026   -2.47705114900622    2.89583671627794
C         5.18959094252802   -1.59564360035903    1.79217136954033
C         2.55386073898133   -0.83300133806382    1.18929866323174
N         2.63181688918711   -0.70493266043208   -0.25888284736934
C         2.61925136049024   -1.88472838129626   -1.11997204377607
H         1.28821765465729    1.32696036784460   -2.63166403955334
H         1.16154207569993   -0.42073338192532   -2.59259345403314
H         2.75734410027818    0.32428231111161   -2.89986265107126
H         1.03021716157915    0.73046574031497   -0.41426722983196
H         2.47309289985941    2.48294280929993   -1.08190343502059
H         4.84162600544745    2.37760878845279   -1.09972851266455
H         4.57965908186680    0.65227681840787   -1.09504073804167
H         5.52080918646774    2.46253673874291    1.06170984564577
H         5.90169201204105    0.79243958533899    0.68583351305412
H         4.93118641382825    1.15894888942650    2.84188224282333
H         2.73553343049772   -1.63944535941515    3.49071033961654
H         4.21457525797341   -0.73086967129083    4.24272083597522
H         4.12088998029697   -3.31535187542682    2.48899230209150
H         5.39656153289640   -2.81702791177160    3.66009666716391
H         5.09758563052959   -2.06342206756636    0.78672551392776
H         6.13747522521537   -1.08837299609816    1.97035464388398
H         1.81231140778422   -0.13364779337256    1.60142583419617
H         2.33996815352687   -1.88745415853375    1.39342887522336
H         3.36275940287754   -2.56982973342494   -0.69041356094197
H         2.92275465796903   -1.71284200130911   -2.15743216771577
H         1.68012173617090   -2.44081695971086   -1.08925187853292
