37
 energy: -49.542260595390 gnorm: 0.153257838944 xtb: 6.4.1 (79825abcba525fcdf90b791dcacef51065a7a4e7)
C         0.93110964481055    0.70650666940662   -1.54554826550006
C         1.93477181479673    0.43153245090794   -0.41693588575616
C         2.87345087994234    1.67148994253896   -0.40648775670500
C         4.40280886148103    1.62828880188268   -0.60916906111535
C         5.20584454874909    0.97831168077355    0.53059671519771
C         4.39097797046379    0.52694943046459    1.73425275702088
O         3.30919054240416    1.48666130599387    1.96973603143855
C         2.68993321448097    2.22958236645972    0.97929272798345
O         1.87620696786915    3.09682033450524    1.29909595290015
C         3.86121044007337   -0.96013962298637    1.79596481670663
C         2.99690060684712   -1.22157151871992    3.18204798845696
C         4.28753881099658   -1.75852433420940    3.81601912784376
C         4.93928218395799   -1.97835059279837    2.48500658620234
C         3.26988297200160   -1.59136307043711    0.48422539807007
N         2.79016521968859   -0.73580034416745   -0.59168894101443
C         3.07457063319605   -1.15482334947313   -1.96175597925528
H         0.37370035370649    1.60472958472975   -1.26182235945670
H         0.20567951748135   -0.11681173837596   -1.49122147224462
H         1.49160810877238    0.76034267267859   -2.48206718351175
H         1.46615430832859    0.40397409337381    0.57104334782680
H         2.58198942110227    2.33790864966018   -1.22981004695411
H         4.68975754700542    2.68821742262745   -0.67935601388883
H         4.57032712396011    1.05738014595638   -1.52414688951315
H         5.65255044113386    1.90393213375722    0.92564847744104
H         5.94210736432861    0.21700231431898    0.25870490879227
H         4.93550900915356    0.63840065545316    2.67887981261303
H         2.28895950664982   -2.05002239096314    3.09368861614599
H         2.60421356741912   -0.29252107235206    3.61832509430790
H         4.41398698392681   -2.62909992674159    4.46263064918444
H         4.75283088028203   -0.97257486861306    4.42008132561000
H         4.64636919966626   -2.94857980907062    2.02559359689030
H         5.99869852695701   -1.83909151601787    2.27099426870495
H         2.60195254258343   -2.41530898802763    0.77374505075379
H         4.03223969062627   -2.19198509651944   -0.02307660782091
H         2.18308223531304   -1.74102447454178   -2.22310868640660
H         3.89067849120927   -1.88190466814756   -2.01923121091190
H         2.99204313477165   -0.38490085663534   -2.73152947947053
