37
 energy: -49.582493417097 gnorm: 0.130353039939 xtb: 6.4.1 (79825abcba525fcdf90b791dcacef51065a7a4e7)
C         1.95397861414314    0.69833738021011   -2.39717477217629
C         2.04577068796524    0.53871649372090   -0.87309804314604
C         2.74760410871162    1.83307348653550   -0.37230671702556
C         4.28950500443639    1.80875525048739   -0.43421076457612
C         4.94374412521884    0.91947598373810    0.63702970788151
C         4.17441908178426    0.67934052213593    1.92815218446081
O         3.05669754527107    1.61336271844731    2.08646961318605
C         2.28769314613528    2.08837550598185    1.03795431114930
O         1.28027762920732    2.71341379701135    1.37107184226432
C         3.69257914635866   -0.82480180011474    1.96395858469419
C         3.61811902573781   -1.33013959738553    3.53739244830668
C         4.99872710072830   -1.95408151454614    3.29121662921090
C         4.81776873695137   -2.00053578455464    1.80468258230849
C         2.44514934126381   -0.95168853528333    1.01707408312172
N         2.78623004829441   -0.60516431195334   -0.35525728056584
C         3.06846821743837   -1.72078739831328   -1.25485563530798
H         1.35749931477967    1.59804590370731   -2.57813590793480
H         1.56116136054840   -0.23030642364051   -2.83348745983625
H         2.95349840270729    0.86481225845299   -2.80628457975331
H         1.04513042792706    0.43750942570575   -0.44305036186942
H         2.44652443653734    2.69314647822308   -0.98594238790185
H         4.70064135312856    2.81905590306448   -0.28938700463324
H         4.55321678902126    1.58968427680363   -1.47038038431477
H         5.98480534338404    1.21065081112193    0.84629989428187
H         5.03395206249217   -0.06751170518480    0.17516621546303
H         4.75863842044399    0.89340440083084    2.83043823947699
H         2.87379417244020   -2.09946207226265    3.75974863635993
H         3.64169012652914   -0.50580000437362    4.26374236653132
H         5.18843214251659   -2.91725648019112    3.76902772846441
H         5.89247802077847   -1.41366831081425    3.62025655761549
H         4.32658518881818   -2.87392035943025    1.32080124250562
H         5.65826468693683   -1.73366119284228    1.16444678851153
H         1.62536149578904   -0.33931915824706    1.41930689853003
H         2.06158939831883   -1.97737611790102    1.02876523432004
H         3.68311184802593   -2.43974090447665   -0.69627920466432
H         3.56846169248804   -1.40784741022840   -2.17684141760603
H         2.13060827476987   -2.21223437372650   -1.52139135550132
