37
 energy: -49.580282464040 gnorm: 0.126771708724 xtb: 6.4.1 (79825abcba525fcdf90b791dcacef51065a7a4e7)
C         2.56968679022723    0.35729334326070   -2.33994918205054
C         2.15238670486321    0.44843333489258   -0.86540903891039
C         2.91683775649337    1.61969451654875   -0.18534728956338
C         4.40974219077157    1.25733567891088   -0.33304392087128
C         5.05362897523879    1.70150176071463    0.99154240278012
C         4.17457811157736    1.10506684401277    2.08152327409054
O         2.92657511559363    1.85185494809067    2.25917285177120
C         2.20591069898953    1.99796350110435    1.08627713889473
O         1.06687712321931    2.45564947872169    0.98803132361848
C         3.86140622093450   -0.43498955911913    1.92013686942144
C         4.11004398452938   -1.38997123901624    3.24783938553093
C         4.89860921765662   -2.37215352040347    2.37064639496632
C         5.03719656031160   -1.36626778150955    1.26897728713234
C         2.45668316626899   -0.71374406080484    1.27374637308532
N         2.46059620508253   -0.80039053374863   -0.17958962554116
C         1.96020298540382   -2.06500394981859   -0.71242166909864
H         2.62318233020282    1.37677905819254   -2.73466049225341
H         1.95536214485840   -0.23800696587197   -3.02935199525584
H         3.58929771724214   -0.02938626406861   -2.41063840966370
H         1.11092449483619    0.77073593210483   -0.77628938286938
H         2.66021591706695    2.43533008628711   -0.87513502835406
H         4.80958568957971    1.86493783239153   -1.15867049065042
H         4.55079651821438    0.18671346924152   -0.49133241209244
H         5.06171725222014    2.80244113707682    1.00742739172746
H         6.07113644100302    1.32730699349259    1.13386909535982
H         4.63861775282630    1.24463985445767    3.06460124541008
H         3.19565720109516   -1.75950601989941    3.71970767954801
H         4.68470466973691   -0.83035967825323    3.99902216222786
H         4.25543902084220   -3.19203613507341    2.04488258732185
H         5.86586783371267   -2.72561599628804    2.74290901436371
H         4.80199672541606   -1.72748937815262    0.24311032087874
H         6.01370371987301   -0.88653436121336    1.33100125816707
H         1.69599038223290   -0.09782903805819    1.77458044265268
H         2.12717807521633   -1.67024678409820    1.69305397523709
H         2.14370320243617   -2.80394482807572    0.07940066935002
H         2.62908276740342   -2.41893707436371   -1.50318957155761
H         0.90348725649710   -2.06440833340466   -0.98718375156601
