37
 energy: -49.573930906429 gnorm: 0.153245774511 xtb: 6.4.1 (79825abcba525fcdf90b791dcacef51065a7a4e7)
C         2.10246650968182    0.52483091797338   -2.37911649295229
C         2.06020423882910    0.44455585165536   -0.84663997088738
C         2.66186135132982    1.78506159658125   -0.33695854046046
C         4.19359156277436    1.95551136380231   -0.41839123067075
C         5.09076950676122    0.97833273822627    0.36045167014681
C         4.40778753513796    0.84751632539699    1.71431502657445
O         3.37320909638032    1.85463322268260    1.96356652280711
C         2.31271115004412    2.06759994704004    1.09963450711556
O         1.26078836496834    2.50010119665093    1.57178626671782
C         3.77513472392687   -0.56887495079625    2.01345058441431
C         3.71927635656621   -1.16102719882093    3.55709570015076
C         4.50822302388842   -2.38356570366509    3.06827317250601
C         4.94306130301180   -1.69518369810911    1.81060338867119
C         2.53156977170300   -0.90290251256578    1.11303768288774
N         2.81821557047888   -0.67198348780125   -0.29558541669039
C         2.74354907245108   -1.95231480931311   -0.99467558957547
H         1.50221769982103    1.33836038739648   -2.79849827094326
H         1.60698358786606   -0.36358528451107   -2.79416684338192
H         3.13794541830166    0.44358465990623   -2.71868533777291
H         1.00545265878733    0.45765676497532   -0.55717102761781
H         2.12354998135785    2.63582138431611   -0.77667652617727
H         4.37905958931352    2.98214867765435   -0.06863150732846
H         4.47614990133958    1.83654981888074   -1.46586076107091
H         6.07788911016820    1.46087424896689    0.43210241300051
H         5.25890731249172    0.02977488024714   -0.15681779912434
H         5.07639838319723    1.13780297737014    2.53281908430584
H         2.71761398777135   -1.42827870518262    3.90432466708295
H         4.28301158357011   -0.46652982066857    4.19549333979098
H         3.88323367556143   -3.27782053284647    3.02711399720622
H         5.34799803300194   -2.51114893707756    3.75936279356647
H         4.82744729321751   -2.24487420624468    0.85004272448579
H         5.86477479407340   -1.11580685398519    1.85881212173057
H         1.60889994000174   -0.46556760314043    1.52078533147303
H         2.42797253560317   -1.98452253185642    1.24962348109052
H         3.13632700993845   -2.77596174485101   -0.38310402433323
H         3.32072383804555   -1.91916756327995   -1.92405884872708
H         1.78289085938072   -2.22587041862656   -1.43563569360353
