37
 energy: -49.582719923901 gnorm: 0.129015831423 xtb: 6.4.1 (79825abcba525fcdf90b791dcacef51065a7a4e7)
C         2.25229486289640    0.64009052670266   -2.47922081181835
C         2.02899283011519    0.52137337932554   -0.96503558231485
C         2.64493158646587    1.76745612388590   -0.26745452600365
C         4.16549017249755    1.93090885457619   -0.47497961714275
C         4.91104459253288    0.90530285865715    0.39604481916303
C         4.30321234981789    0.67657503106801    1.77254287131419
O         3.29452784024885    1.67913419036126    2.12495458021509
C         2.36304158844983    2.07222297789980    1.17933107069403
O         1.36738480083569    2.69614658085357    1.54799496890828
C         3.72485656299479   -0.78723834789709    1.90911132267624
C         3.65478496206339   -1.24983282114918    3.49583784707013
C         5.00837292709595   -1.95921907485456    3.35246606191454
C         4.91825138235477   -1.90391405374335    1.85797388799046
C         2.41040672763501   -0.95343540140085    1.06449792457233
N         2.66191318245264   -0.62933328686036   -0.33243112710866
C         2.74523028454201   -1.85618699040592   -1.12074496530070
H         1.63051036797617    1.47461065984912   -2.81829322091311
H         1.76948100236742   -0.27005104152848   -2.86077889834236
H         3.24511517280973    0.66974688274178   -2.93480049526147
H         0.93747534754585    0.49670962583493   -0.89835665183182
H         2.13980663022892    2.63846638599235   -0.70690096971295
H         4.48546650982891    2.94802906424396   -0.20332532956756
H         4.37006444223381    1.79031432517725   -1.53779005822449
H         5.95030416673157    1.25869188242551    0.48230607082062
H         4.86765957499184   -0.07397913145612   -0.08843901356295
H         5.06526343185788    0.76354065576120    2.55546741700405
H         2.89383359351044   -2.01588184553055    3.66742090305249
H         3.56483569734190   -0.36475330729982    4.14098818144219
H         4.94184343630083   -2.96937108343054    3.76132326084672
H         5.87914684717753   -1.46625990190232    3.79726764069721
H         4.59807702681294   -2.91239367267642    1.51350287242006
H         5.81751913062940   -1.71552754916893    1.27198293238443
H         1.61976594855162   -0.28764166821285    1.43925846905287
H         1.97248987134434   -1.93464532278934    1.27603005838634
H         3.36141311839875   -2.55966387059265   -0.54443987260603
H         3.20181818332856   -1.54229587064711   -2.06466368705984
H         1.72689063733592   -2.20906122357792   -1.29569305201853
