37
 energy: -49.580372791490 gnorm: 0.147852160342 xtb: 6.4.1 (79825abcba525fcdf90b791dcacef51065a7a4e7)
C         2.05979137320265    0.47144860532812   -2.36302203967977
C         2.05913084796711    0.42444829556286   -0.82858239337386
C         2.87076109339455    1.62435539123386   -0.26271895113733
C         4.38758504456632    1.48316435636709   -0.51008922215315
C         5.07150274036145    1.60943280476849    0.86203157119192
C         4.21458253875388    0.99113616479235    1.95744032554510
O         3.03391545438863    1.81741297021289    2.22211973457083
C         2.31589651566883    2.06593447183070    1.06493559507841
O         1.29923461349902    2.74832555702580    1.19634018432436
C         3.85083632784494   -0.54597037067301    1.92763942480168
C         3.84477686189195   -1.28101405892689    3.40962416514807
C         4.79951007939949   -2.36199906994350    2.88432368757931
C         5.12406324969747   -1.54021020143877    1.67435852743822
C         2.63979292296254   -1.01303449298389    1.04220362151822
N         2.68883833182995   -0.81834022675912   -0.39980786759870
C         2.25571842978477   -2.04032537652116   -1.07264507351517
H         1.72595435585602    1.46466568561857   -2.67938036760204
H         1.25696535950825   -0.19467722851795   -2.70769614318517
H         3.04122536099045    0.28032695209436   -2.80391246719097
H         1.03442144158221    0.59278534947133   -0.48492837924872
H         2.54811892848551    2.49377080775615   -0.85173689735579
H         4.72354096590878    2.29617961635877   -1.17103871590309
H         4.56245249565428    0.48824501549771   -0.92329662899125
H         5.15636649870258    2.65462454697940    1.19782559849086
H         6.04221542668111    1.10631634294849    0.84822012788003
H         4.79501454890330    1.10011776411354    2.88073735260512
H         2.83227537567769   -1.67174509901816    3.54186950579894
H         4.19589245470572   -0.60107014287277    4.19833810318767
H         4.32642927936013   -3.33182324352772    2.71809165020560
H         5.69784379283573   -2.54151848064902    3.48421845335680
H         5.18319960361028   -2.14458774211362    0.74192423418270
H         6.05787152819405   -0.99816460772756    1.82182389600082
H         1.70621621130080   -0.60836469613804    1.45875670825218
H         2.54775846640662   -2.03111905810070    1.43504380122469
H         2.90277087323895   -2.82341874286704   -0.65458229936854
H         2.64479062383325   -1.92831403766667   -2.08953198333889
H         1.18808881373241   -2.23362051740593   -0.95038844099610
