37
 energy: -49.576637760030 gnorm: 0.146379113194 xtb: 6.4.1 (79825abcba525fcdf90b791dcacef51065a7a4e7)
C         2.08639950195912    0.66567992484896   -2.38891038557486
C         2.08190953186940    0.47164402073100   -0.86606948898677
C         2.86014598868877    1.70578516197628   -0.32758478311299
C         4.38781785229826    1.49783719460178   -0.39728533837130
C         5.14604831365985    1.47455902729021    0.94097744797335
C         4.23950341171238    0.84108377057077    1.98663931277493
O         3.03471949734080    1.65128622448838    2.18369516912749
C         2.33332307337185    2.01698080849573    1.04760547965927
O         1.27112696876029    2.59809301672789    1.27249259144059
C         3.80876353041345   -0.67222786023672    1.84434746135017
C         3.67370032231495   -1.34337356015564    3.35031097403373
C         5.05039538183286   -1.97083619282672    3.09149431087143
C         5.09430614827586   -1.65903723321903    1.62672789566029
C         2.49168888571700   -0.97611696699217    1.04326233517756
N         2.65466771662631   -0.78157581096330   -0.39036944841414
C         2.31366416521170   -1.98848548389190   -1.13912580186779
H         1.86770419974784    1.73457156109825   -2.47639153379857
H         1.40764716726100   -0.03225745810085   -2.89805883814677
H         3.08452563837872    0.49261043933925   -2.79868556259362
H         1.03068813149971    0.36983807021502   -0.58140491611411
H         2.54644803594425    2.58936316673448   -0.90012889772552
H         4.75909094630295    2.27844593295038   -1.07810889425462
H         4.53920113835934    0.53901851765184   -0.89621752365707
H         5.53866465125054    2.49021328047346    1.10433010294652
H         5.99491510326660    0.81821654927109    0.73064491488120
H         4.79420691582159    0.87514593340105    2.93130829995951
H         2.83396531837033   -2.04054511166216    3.28615655800373
H         3.55298529682978   -0.60580631964017    4.15597716672348
H         5.10465571213658   -3.02717258723591    3.36206168093542
H         5.73555117204988   -1.46914606614463    3.78285020452704
H         4.79266890203898   -2.55089588499257    1.03359540339605
H         6.01647440915991   -1.22323649581418    1.24300824743451
H         1.70444271959836   -0.26096960615578    1.32191503158302
H         2.15301938493917   -1.99160300073727    1.27430563863113
H         3.00061538552640   -2.70035393921033   -0.66160104641398
H         2.39649896980750   -1.89661754383230   -2.22663735191541
H         1.32295586550652   -2.41240893265779   -0.96326033039989
