37
 energy: -49.579231345552 gnorm: 0.141772499056 xtb: 6.4.1 (79825abcba525fcdf90b791dcacef51065a7a4e7)
C         2.10069414839087    0.44300820487785   -2.44235257983747
C         2.07511696214647    0.48352882220497   -0.90794117298788
C         2.78822605231459    1.72485566305803   -0.30023628273687
C         4.29747110473614    1.44572039277896   -0.46192964600882
C         5.08625441601181    1.62191182027252    0.84695540604232
C         4.35894029394910    0.99835429389887    2.02962759608606
O         3.09963426293819    1.72857498474188    2.19602888218890
C         2.27490523783584    1.92125054108928    1.10100037825752
O         1.12264455634894    2.31577056144064    1.28314169428979
C         4.00024854779792   -0.53385402949772    1.88972111166700
C         3.84362381172503   -1.24862880623545    3.37335531646461
C         4.74598143652711   -2.38182296553056    2.86580588951847
C         5.20306534425552   -1.61766187621852    1.66089115129094
C         2.63383133168035   -0.79430995916880    1.15907871583980
N         2.62826970654998   -0.71772168287035   -0.29481665389741
C         2.32741733341929   -1.92686797136362   -1.05705254761910
H         1.72313067350994    1.32544818545374   -2.96842805823238
H         1.32124592569771   -0.27900493769164   -2.72201480877833
H         3.08691983971610    0.21893921135123   -2.85620822404148
H         1.02489092632658    0.65315645024605   -0.65354668928209
H         2.51848977795625    2.53245484708382   -0.99446186638319
H         4.79076094909035    2.08254018193550   -1.21148959357249
H         4.40372662802154    0.40951412177825   -0.78776674553942
H         5.28122751383958    2.68187945763171    1.07243126285230
H         6.10230688638118    1.21892482794793    0.81799140346333
H         4.91112297348131    1.19023831691598    2.95673628174350
H         2.78350128752087   -1.44498602625806    3.55474692489604
H         4.26851004536743   -0.64428763360077    4.18693936611461
H         4.17647778967078   -3.31073019682415    2.79656418127249
H         5.49420058288646   -2.51372371229198    3.65439622248618
H         5.03766010004016   -2.10772179594834    0.67565746317725
H         6.21358637944708   -1.21239096381631    1.61441448280163
H         1.94311644273726   -0.06736324940987    1.60996786436089
H         2.28660376864243   -1.79450273035939    1.43896684890536
H         2.78326049344562   -2.80754252521770   -0.58449788707656
H         2.71088063190722   -1.78908524134414   -2.07290416765759
H         1.23721993292623   -1.98500604094892   -1.04181154000456
