37
 energy: -49.581804837650 gnorm: 0.131353751327 xtb: 6.4.1 (79825abcba525fcdf90b791dcacef51065a7a4e7)
C         2.13868725929227    0.52621573885242   -2.31445439669945
C         2.13538097546496    0.39183747591977   -0.78519115967734
C         3.03753260134605    1.59010687225730   -0.37410111896779
C         4.54677363183259    1.32015768368436   -0.19746363646309
C         4.94424987001582    1.71052023413517    1.23642349969617
C         4.03449648929709    0.95941181125043    2.19804100383407
O         2.77128795106494    1.69438533125552    2.09372704629750
C         2.35328140419746    2.13635350449930    0.85021432039989
O         1.35428672901853    2.84795805278654    0.73996563073520
C         3.85710468480360   -0.58851186104619    1.93658293231382
C         4.00944741210236   -1.52709565606555    3.29026563313829
C         5.26225105058687   -2.15859350033879    2.66762752137378
C         5.13035187120048   -1.43772233687219    1.36086252224970
C         2.55402090133800   -0.99507160257971    1.15847406783422
N         2.64135185137608   -0.88258122519361   -0.29046612049627
C         1.88632577467772   -1.99312540788737   -0.86507704230175
H         1.83572392864532    1.54269638484169   -2.58462143920465
H         1.37975831901095   -0.11247161718564   -2.78685125929893
H         3.10940387615892    0.30595520038223   -2.76536355872818
H         1.13055690761459    0.54782592243529   -0.38212664252851
H         2.84753760239237    2.35263102021541   -1.14181335857561
H         5.11573145962993    1.73955216690120   -1.04073682739656
H         4.54585034378603    0.23142206067485   -0.27386638287627
H         4.79638718385515    2.79439434029094    1.36187788553782
H         5.97907871663874    1.39020126419064    1.38516845282310
H         4.29655420593737    1.08166491395988    3.25522386967095
H         3.21991069842009   -2.27886488156036    3.37268915563552
H         4.23596525315419   -0.88896195303397    4.15580050062181
H         5.33172057260397   -3.24634679307696    2.60466547186661
H         6.13969082351420   -1.77420599832237    3.19814623213600
H         4.80482837178056   -2.16524906397063    0.58436890145432
H         5.92990853478540   -0.79275305033669    0.99715781572192
H         1.70411871401415   -0.43351704761902    1.57219177962992
H         2.43877036751699   -2.05659616960970    1.40172874029435
H         2.03327360981297   -2.90034193811187   -0.26336858458528
H         2.26547490163617   -2.09264097265819   -1.88699939349085
H         0.83679050632041   -1.69873283071163   -0.92793742052982
