37
 energy: -49.583465048600 gnorm: 0.137721448841 xtb: 6.4.1 (79825abcba525fcdf90b791dcacef51065a7a4e7)
C         1.93926151067686    0.56231355006668   -2.38500651462273
C         2.04884402208816    0.45364996591602   -0.85762366948053
C         2.66250175514313    1.76387681612644   -0.28713979200203
C         4.16523862754650    2.00887876382973   -0.53940504330611
C         5.03461198030870    1.07243102687734    0.31713343852719
C         4.49317682812291    0.80398591167490    1.71402586931712
O         3.46897786040194    1.76485717919284    2.13176522355366
C         2.44647210503779    1.83121561342834    1.20092271834800
O         1.29276135865565    2.07445591426108    1.55632648940093
C         3.92487851287696   -0.66173833554453    1.87082297548859
C         3.49025753299273   -1.00408992358384    3.42983057490092
C         4.63512045463577   -2.02626988798934    3.45036618989201
C         5.14349247517562   -1.73335352916927    2.07179980237234
C         2.65712631811169   -0.96808517690356    0.99462235797112
N         2.81056544597785   -0.71355604948389   -0.43064244737358
C         2.62120070395645   -1.91320474730641   -1.24214378812174
H         1.31396034831974   -0.26967202451612   -2.72384034756080
H         2.95014598362922    0.48958729553688   -2.80912552883598
H         1.47504922197228    1.52328182598911   -2.61989254326677
H         1.01516806018817    0.39924922073459   -0.50404290906395
H         1.90656132581359    2.49100454352312   -0.61388522836553
H         4.44966771132891    3.06895128963281   -0.46155428921883
H         4.41008999752918    1.79943627818425   -1.58217305029520
H         6.03543533184005    1.53129259865012    0.30357172522440
H         5.17619983940497    0.08522983917063   -0.13118199306665
H         5.23597440713506    0.93153490397492    2.50978883363053
H         2.49478574446353   -1.45368699292849    3.47691797465360
H         3.50200524185309   -0.11700045207103    4.07837496080155
H         4.15287812894480   -2.99934738948431    3.56243748654914
H         5.36610991312213   -1.82944216756778    4.24157897316862
H         5.14807131853762   -2.52173306549005    1.28653566428644
H         6.11372812707176   -1.24312445121436    1.99514747509628
H         1.82416771117181   -0.41291579285268    1.44938217527306
H         2.34986202814160   -1.99230159266265    1.23096808014470
H         1.56042655158475   -2.18938005072580   -1.31407399703704
H         3.32259373534491   -2.70198187866061   -0.95255590808782
H         2.92190759264621   -1.58924180436283   -2.24052551355596
