37
 energy: -49.582577323323 gnorm: 0.131989469618 xtb: 6.4.1 (79825abcba525fcdf90b791dcacef51065a7a4e7)
C         2.00342047431855    0.46691561623773   -2.45576820570671
C         2.09176920001776    0.42710228289986   -0.92367033787984
C         2.85263641749226    1.65297893610383   -0.34312781338796
C         4.38742536302851    1.49212689455753   -0.36389729206539
C         5.07115097710993    1.62972641010635    1.00722934944228
C         4.21227405916770    0.99068894318946    2.08911884867423
O         2.96322631579158    1.75142325199966    2.17814899363013
C         2.30891040790442    2.06389301245641    0.99890237049329
O         1.27739541542200    2.71163097676936    1.18039211528085
C         3.94181237719740   -0.55214045481838    1.88314829085163
C         3.85234412599097   -1.32339146322632    3.34389195589522
C         4.76646200512805   -2.40536426660592    2.75253076238178
C         5.19599042374283   -1.56023811512188    1.59237796062464
C         2.62006177387123   -0.81912467040469    1.07663332321173
N         2.70361003609243   -0.77744315428798   -0.37629158941128
C         2.34530660116724   -2.09843676349786   -0.88633569779917
H         1.15521666119396    1.07454054819811   -2.78645256028079
H         1.83302742369812   -0.52562435237314   -2.89495391390530
H         2.99038575759752    0.80973851284874   -2.77591898018573
H         1.10726061471820    0.63257090156530   -0.49356534220998
H         2.50897873422155    2.42001605897554   -1.05057160247728
H         4.82658092655760    2.28749407998396   -0.98458067318387
H         4.60437124974145    0.51904612716191   -0.80800514676401
H         5.17419882791252    2.69964983135925    1.24603948236401
H         6.10306353768653    1.26833935134078    1.01971576942010
H         4.65763634785777    1.12611848494908    3.08137233504686
H         2.84044283107444   -1.66019924592553    3.58458911935445
H         4.20333545709265   -0.71444751295378    4.18868063962911
H         4.25645673918725   -3.29124865329989    2.36899335177861
H         5.48802353644039   -2.75534527786596    3.49816248058228
H         4.98950186965519   -2.13923318282415    0.66483808046535
H         6.17137967970801   -1.08200265309038    1.67877240973159
H         1.94709924826462   -0.00467057122661    1.38097781502319
H         2.29956651527330   -1.80795873469703    1.42127794807276
H         3.03568065733263   -2.83954000654642   -0.46108493425809
H         2.50754385027845   -2.18567037522179   -1.96524814421902
H         1.32076958969392   -2.42776840381711   -0.70192508569897
