37
 energy: -49.576759108171 gnorm: 0.149904698094 xtb: 6.4.1 (79825abcba525fcdf90b791dcacef51065a7a4e7)
C         2.27900204804780    0.54282811641977   -2.36580877493306
C         2.13602181588155    0.34911168156009   -0.84964747839823
C         2.51404198001349    1.71614298054216   -0.21164412863108
C         3.99528877427564    2.01658442323733   -0.52393362425411
C         4.96639285227333    1.08747203491586    0.22447110899476
C         4.49281175930060    0.88443922707870    1.65661005223162
O         3.33188649769823    1.65456968414778    2.11038856106843
C         2.25542949796364    1.85878444568002    1.26426451934091
O         1.18268606881887    2.20798144050763    1.75803485730414
C         3.86342738257748   -0.54779992439791    1.87675156753914
C         3.70646474636418   -0.85111705312446    3.49538252882824
C         4.58807626065665   -2.09970810055346    3.35479007974098
C         4.93029614485137   -1.78581840409173    1.93034414977894
C         2.60044468660968   -0.93918107039531    1.02794820952396
N         2.91651553061053   -0.79120571568642   -0.38552658208809
C         2.76965201572236   -1.96425911513694   -1.24338862866793
H         1.80024297858924   -0.25028601836463   -2.94870639082802
H         3.34386687775102    0.65547996594269   -2.61162562496371
H         1.93037508778219    1.52449451986894   -2.69583125827643
H         1.07972915790894    0.32144952024837   -0.56690124635174
H         1.93874710153155    2.48774730984330   -0.74134764298187
H         4.23710929188036    3.00641934193906   -0.10864564853172
H         4.05302659490233    2.08704470365579   -1.61153887027982
H         6.01367029363514    1.42729179258229    0.21361995995119
H         4.87610694723867    0.11051081244864   -0.25822474076429
H         5.33983313706931    1.00131687257847    2.34228498058462
H         2.67497639572271   -1.06445679088687    3.78836166706217
H         4.05289732699517   -0.02838462138450    4.13629701641303
H         4.06955484252730   -3.05211062738686    3.48152771445722
H         5.53520455886770   -2.16914900458274    3.89997844931653
H         4.71830909308568   -2.59413135712599    1.19556887615903
H         5.93397076948452   -1.42880623158202    1.70069894094461
H         1.73466465663726   -0.34088409187567    1.34623309671357
H         2.28096010629332   -1.94077223092662    1.33459896322923
H         1.77092809941255   -2.38782815465658   -1.07067969914954
H         3.51934893005456   -2.69331381909242   -0.92025325107669
H         2.93383405790916   -1.72675305075913   -2.29637382273402
