37
 energy: -49.572136487110 gnorm: 0.147218092442 xtb: 6.4.1 (79825abcba525fcdf90b791dcacef51065a7a4e7)
C         2.53441197730989    0.53016693304992   -2.42249243352430
C         2.19432926782776    0.43058920881513   -0.92879149018832
C         2.93578700308862    1.64736216891361   -0.30555309543959
C         4.45670183609498    1.38561985381666   -0.29173707472286
C         5.08497420953531    1.72729166577288    1.07022357105832
C         4.21718834749252    1.09607581335770    2.14959262680603
O         2.88845339036846    1.70559746535903    2.24813243994959
C         2.27398549755390    1.89865372929389    1.02275586774885
O         1.09178552188146    2.23503745382747    0.94675986063187
C         3.84071313314704   -0.42198918801654    1.92679008804803
C         4.00902165900076   -1.27994074342694    3.33113907533373
C         4.86022848716788   -2.31099634958309    2.57724519947233
C         5.00671788489362   -1.42747598116306    1.37615402501192
C         2.55329937018575   -0.84105432076980    1.12946845711486
N         2.54114395521737   -0.85070353866916   -0.32637066690533
C         1.88655891476903   -2.07982595581917   -0.76719596906295
H         2.10530241061777    1.48156207775899   -2.75222288471637
H         2.08297364778743   -0.27814782319343   -3.01400249837271
H         3.60345638307830    0.50362084899038   -2.64735658643521
H         1.10859273158051    0.54798823257627   -0.99090783341334
H         2.78630910371395    2.57884583140948   -0.86850762006954
H         4.95257365386656    1.99993546511852   -1.05818465743965
H         4.73338187036963    0.35133760491614   -0.50361408085530
H         5.07933693378058    2.80256686051742    1.30715549569025
H         6.11266165355654    1.37748830541591    1.20097589182755
H         4.66259986376553    1.26024006336430    3.13747641388943
H         3.05585709310677   -1.67195189947241    3.69599986274576
H         4.58363500841629   -0.68327196938079    4.05327579194119
H         4.21326052621730   -3.17554467545856    2.41604311599388
H         5.81925878005001   -2.55339611097935    3.04693409989016
H         4.93763529172414   -1.94813010964439    0.39515968037040
H         5.89079154076085   -0.79613544553286    1.46206249022402
H         1.64844277794482   -0.38742460424088    1.55876346893270
H         2.49830898013197   -1.86305209634718    1.51906637305924
H         2.48958560942930   -2.89502465634020   -0.34470520419957
H         1.77532041004828   -2.07139571082903   -1.85601992968372
H         0.87802324291069   -2.00043909960782   -0.35646951788684
