37
 energy: -49.583153505977 gnorm: 0.137363382032 xtb: 6.4.1 (79825abcba525fcdf90b791dcacef51065a7a4e7)
C         2.15562255772244    0.67922088842363   -2.36576814736323
C         2.11628255147396    0.45674608277930   -0.84732426881080
C         2.72267245427474    1.77299052953531   -0.28295387494625
C         4.24967973141771    1.94857268623759   -0.42188385569335
C         5.02185788959481    0.91211410973402    0.41232062493114
C         4.38257274279424    0.74851707838663    1.78384307539938
O         3.32925810922566    1.71001560745799    2.11971830294755
C         2.35796951568353    1.95953851290712    1.16539863124082
O         1.26731160519788    2.34962373952389    1.58351943445512
C         3.73789719398166   -0.68904898888290    1.90086095025644
C         3.50801469536100   -1.18470412835646    3.46229770415874
C         4.89632877259630   -1.83863350205754    3.43155520678557
C         4.92613129350358   -1.81189425930826    1.93386224124511
C         2.51687597833691   -0.95325036288762    0.94793050756008
N         2.80109795593265   -0.77308040074694   -0.46856697121593
C         2.56425761778373   -1.92006338950199   -1.34142843270001
H         1.70503801954198    1.63878436733531   -2.63820422355735
H         1.53778982110644   -0.13074815178810   -2.77721235595994
H         3.16951400128535    0.52256976712900   -2.74207798331740
H         1.07158572407671    0.45889532644626   -0.52318121025529
H         2.32984834838726    2.60973724028804   -0.87664353927721
H         4.42860741917260    2.96609929776381   -0.04328259992903
H         4.53397260561169    1.98332092095333   -1.47504747038175
H         6.04822792742014    1.29815178909977    0.51194347562453
H         5.06951645442076   -0.05187602022221   -0.10153902334563
H         5.18019206863010    0.72100922665429    2.53504373721517
H         2.68702176030832   -1.88785987256091    3.62619227237890
H         3.52299776617570   -0.36104610439770    4.18964805300887
H         5.12333575169566   -2.77222674366452    3.95008095560529
H         5.66561129093433   -1.14518956308021    3.78714531068472
H         4.58385764307424   -2.76940060721584    1.48194036388097
H         5.84447866699791   -1.60117402213172    1.38632919044690
H         1.74288184385618   -0.24144564814304    1.26903287794748
H         2.05921497724307   -1.90199525163473    1.24746258930444
H         3.13114915914400   -2.76227757536081   -0.92190750253011
H         2.77393778014040   -1.65437846882280   -2.38230712230904
H         1.52815886891841   -2.26323875012442   -1.37097065521637
