37
 energy: -49.576350377912 gnorm: 0.150905509523 xtb: 6.4.1 (79825abcba525fcdf90b791dcacef51065a7a4e7)
C         1.61279619850016    0.49001687040704   -2.27313281821960
C         1.96844987639739    0.46547938356035   -0.77994066495291
C         2.61892396889615    1.82357498116536   -0.39111956671953
C         4.15046478376365    1.95273618862435   -0.53105501580941
C         5.03397346400056    1.02517312721531    0.32067365848450
C         4.45131127429186    0.72120129345637    1.69349162814877
O         3.28304802680003    1.55071819485537    1.99980188310362
C         2.37950716917815    2.05011192597629    1.07751719938828
O         1.36248150348010    2.56049130519330    1.54836520048481
C         3.94535634981259   -0.76929307356861    1.82888760627807
C         3.44159190422954   -1.14845847364584    3.35828608944347
C         4.75630681275797   -1.92043961814428    3.53592202908296
C         5.24118123841277   -1.71919746073003    2.13268085926950
C         2.65683575657537   -1.15059894355196    1.01458293890976
N         2.76946162318652   -0.67680084218545   -0.35747361486731
C         2.93675487130044   -1.78610877128378   -1.29288759093903
H         1.14883439119137    1.45562823478462   -2.49750758431066
H         0.90906030763410   -0.31298748735014   -2.53196337034344
H         2.48480826846153    0.40224222437499   -2.92583112115017
H         0.98719993665940    0.42351700312957   -0.29843002512264
H         2.10975147852662    2.68741860191455   -0.83994113474309
H         4.39752701529714    3.01979201251909   -0.42585742444327
H         4.35960158748866    1.68492767066113   -1.56822610631346
H         6.01083042819837    1.51055034851425    0.47082248958599
H         5.26826224743553    0.05863632973124   -0.13376601859494
H         5.15756662487417    0.74872760681020    2.53116779989834
H         2.49127786140566   -1.68866083344830    3.33819957587270
H         3.34366910891103   -0.22093189287319    3.93947550665034
H         4.73078373876566   -2.96512923446789    3.85210178871769
H         5.35556623267794   -1.44411738125947    4.31893523793066
H         5.17511362750316   -2.65690716132960    1.53724939967917
H         6.15718520579796   -1.16263415226582    1.93587798275129
H         1.74744182399941   -0.74905920578600    1.48427229878444
H         2.62207780540239   -2.24515954277092    1.01893001191787
H         2.04780733368377   -2.42692084221173   -1.36918121279492
H         3.79705946762848   -2.34304194665081   -0.90859066147819
H         3.23848949976752   -1.52574523812285   -2.30940602388650
