37
 energy: -49.577823187365 gnorm: 0.143358574771 xtb: 6.4.1 (79825abcba525fcdf90b791dcacef51065a7a4e7)
C         2.16677046020708    0.45437768757879   -2.37332233598471
C         2.10253633392692    0.46148765929761   -0.83952381414478
C         2.66672985641313    1.81731986200074   -0.32754059675619
C         4.17254843531519    2.13556214085418   -0.44205747911214
C         4.96497539982608    1.03539040399162    0.28463658977342
C         4.34846107661886    0.82176281403907    1.65969901258676
O         3.23240676908221    1.69825080200864    2.02432884080459
C         2.21543862825723    1.89628713395008    1.10620756484152
O         1.08695733285899    2.21698520926238    1.48065233862364
C         3.84812808699753   -0.64865272431797    1.94856058526676
C         3.71566228330113   -1.06482467115379    3.54413523047388
C         4.76046091158442   -2.14132084343048    3.21927137790919
C         5.16655591272747   -1.61324570289788    1.87729116267027
C         2.55137712216828   -1.00006044877469    1.13386973829037
N         2.78659569425942   -0.69273748103446   -0.26967337700750
C         2.67892426792685   -1.88281537805458   -1.10971618656560
H         1.51843855716278    1.27417364557680   -2.69829963391180
H         1.72190289910889   -0.42534591716526   -2.85833027188964
H         3.18740512458115    0.59069973734388   -2.73917162674723
H         1.03866085241439    0.38532589873408   -0.59696836485003
H         2.18000002121563    2.61715328286101   -0.90224384680671
H         4.33024912506572    3.09820859034942    0.06701690867194
H         4.60481483857505    2.09483992844293   -1.44339205663987
H         6.01974200642881    1.32798118143128    0.40398190805809
H         5.04997017881527    0.09542050392174   -0.26747981266098
H         5.03564824578930    0.98564939429085    2.49765527552393
H         2.72023219210163   -1.43897160985292    3.79800889323788
H         3.89256467334064   -0.28730079767312    4.30033476407776
H         4.25225259667372   -3.10287297472606    3.12367183879721
H         5.55041473787685   -2.35609894342582    3.94655930700456
H         5.03242799529170   -2.28133088460893    0.99758954380111
H         6.09845212714673   -1.04945987579605    1.91296121448263
H         1.68277460766878   -0.41661318997346    1.47144724395249
H         2.37960008653512   -2.05309397733319    1.38065500704375
H         3.48850569679753   -2.52637913749870   -0.73945659469673
H         2.75507284337727   -1.72253282438182   -2.18975951500406
H         1.74961132671289   -2.43148497595987   -0.94393977076181
