37
 energy: -49.571659036897 gnorm: 0.147208212271 xtb: 6.4.1 (79825abcba525fcdf90b791dcacef51065a7a4e7)
C         2.23292444157379    0.52124853260813   -2.49968349484983
C         2.12337095041129    0.47561506383595   -0.96911822081510
C         2.59769457160910    1.81120031281892   -0.32884390476342
C         4.10450802974831    2.14470801108717   -0.34179208074023
C         4.97877662414397    1.08135688584188    0.34475100782807
C         4.39645067731223    0.82979501770274    1.72827420994574
O         3.20400304812222    1.62304010887511    2.03745732483294
C         2.19522458909885    1.86397759204929    1.12055798496452
O         1.07037676268532    2.19893990129490    1.49344373884680
C         3.91199604492873   -0.66915204070896    1.84809651611856
C         3.69396758115667   -1.09567650541612    3.43149324531067
C         4.93689490547850   -1.98089655045219    3.26565644587179
C         5.21350407342134   -1.65883721338606    1.82883615436536
C         2.56882410513098   -0.92536214591322    1.07413455226094
N         2.67844441149816   -0.72895988529846   -0.36430834202017
C         2.48799530441690   -2.04944268962213   -0.95895506263366
H         2.03089715834566    1.56783446833413   -2.74838565219494
H         1.55951601362872   -0.16618698452677   -3.02978438548158
H         3.22195945310667    0.16511345254932   -2.79818319314390
H         1.05149520001222    0.47017864130692   -0.75113287147191
H         2.04497378313503    2.56399378218802   -0.90739810990990
H         4.24457827028345    3.11118216376141    0.16518174844694
H         4.46831811528554    2.30090330276671   -1.35886077366700
H         6.00145654328342    1.42381010015662    0.56664477707548
H         5.02974674566277    0.14130372154707   -0.21139838260017
H         5.00456845760743    1.09177616646295    2.60166664856053
H         2.78277948386483   -1.67501489014492    3.60302202610427
H         3.74501142978961   -0.26623655311845    4.15058952376420
H         4.86482592421675   -2.99543175137223    3.66254667076607
H         5.76595681065405   -1.51504813461262    3.80856161556059
H         5.12042668529570   -2.47782133015204    1.08130377798505
H         6.16236293298197   -1.12636646739575    1.76801568872585
H         1.69918081997175   -0.56642695396657    1.64310350154119
H         2.50710911142460   -2.01143634127210    1.20032503680248
H         1.55595764376736   -2.54807737091439   -0.66002729880037
H         3.23631175637709   -2.74859728958410   -0.57270641211161
H         2.49903594524677   -2.09364182323370   -2.04985708363040
