37
 energy: -49.572954301885 gnorm: 0.142789747589 xtb: 6.4.1 (79825abcba525fcdf90b791dcacef51065a7a4e7)
C         2.10113616777890    0.50431794002361   -2.40064892796755
C         2.04464054869946    0.40824919221174   -0.86954033673136
C         2.90970526298620    1.55801957196431   -0.27927496689584
C         4.42435278498904    1.26190988295048   -0.28588991037268
C         5.10131772350733    1.63693768216714    1.04357434883424
C         4.20733575825869    1.10247863843592    2.15338202451078
O         2.97303329292193    1.88889273317619    2.22276199884098
C         2.29156455101310    1.99316042328638    1.02229632686653
O         1.12471636666878    2.38326630363334    1.07529514096530
C         3.86392333953797   -0.42255254193241    1.92481328901861
C         3.93714107463327   -1.25014842913675    3.35531281468461
C         4.79327370238640   -2.33510510722888    2.68756239051767
C         5.14974202942590   -1.37655428061999    1.59266603136284
C         2.62477896821256   -0.86788372667724    1.06750769380488
N         2.62539285984883   -0.83909704840374   -0.38812939794885
C         2.21354006362833   -2.06744868443654   -1.06272554145154
H         2.25632083254079    1.50068692994033   -2.82629721160464
H         1.14276184488009    0.11152455737177   -2.76709876935138
H         2.90584257810477   -0.18085567270825   -2.67833443727181
H         0.99676048981700    0.61899590869577   -0.63716565557728
H         2.76787796806299    2.40499978144130   -0.96442662010110
H         4.92813885136140    1.90533289869986   -1.02272153662112
H         4.63906692063919    0.21948376126871   -0.52761100311707
H         5.12072894015006    2.70566657893511    1.30782235041495
H         6.09870982409707    1.20167165449566    0.93702612310517
H         4.78497866401930    1.21753353964785    3.07769080639916
H         2.99785099495662   -1.54352583978061    3.83173978688644
H         4.51947772059906   -0.68790105683787    4.09857419612284
H         4.17614799379718   -3.06661712043386    2.16216397390384
H         5.56909679001336   -2.85186340010866    3.26216121657976
H         5.22370980629573   -1.62198652543765    0.50984803586266
H         6.05276885490115   -0.86531570917820    1.92543476676939
H         1.82844603986592   -0.25232754645886    1.50998259602991
H         2.45022319461362   -1.89939223903733    1.39125201204917
H         2.77673307885352   -2.92164788327145   -0.66291819747101
H         2.43409396593850   -1.91746817508028   -2.12425486911872
H         1.15744502927359   -2.23616264001643   -0.84285838618127
