37
 energy: -49.577051333229 gnorm: 0.151699873120 xtb: 6.4.1 (79825abcba525fcdf90b791dcacef51065a7a4e7)
C         2.17322847926157    0.50174363738260   -2.41860291089957
C         2.09037476230328    0.38688158926311   -0.88999032445092
C         2.63898201313735    1.71133612643251   -0.28702072332657
C         4.12873169516834    2.07700768759776   -0.45676178095365
C         4.97329936787800    1.18910580014348    0.47315126690163
C         4.32402156872527    0.98379947954831    1.83433125539238
O         3.18591914357568    1.84577313601383    2.16370579569119
C         2.23808421670384    1.87027754048760    1.15504444051536
O         1.09648570902442    2.20726667348675    1.47082496626284
C         3.87181205028101   -0.52833221682054    1.90404646332461
C         3.77377746812435   -1.13437234109402    3.44018099668546
C         4.77754790604786   -2.25307757098638    3.12884803430293
C         5.00127813288982   -1.70118383358932    1.75405878553698
C         2.61051193259486   -0.87323750437494    1.03287830190373
N         2.87208497746821   -0.73866232011665   -0.39301703757946
C         2.63697065068510   -2.03221441390280   -1.02940896982278
H         1.88254408895770    1.51053144953442   -2.72821499578081
H         1.45136133456280   -0.15604382253455   -2.92186918909436
H         3.17528009822324    0.34344576176104   -2.82475418193727
H         1.03124370018614    0.29816868006392   -0.63146333197484
H         2.09058570046093    2.55022032761656   -0.73697409250755
H         4.28564747378672    3.15911769828801   -0.33375862023556
H         4.51958375213433    1.70727773861337   -1.40635006785393
H         5.99693849846603    1.58652085674479    0.55444979963181
H         5.12334307973319    0.18971977294674    0.05564138489312
H         4.96428331157359    1.14966566842533    2.70829292937469
H         2.76173513772619   -1.28531763514242    3.82528444789697
H         4.14420776415352   -0.35685278482005    4.12276454590683
H         4.33981786928768   -3.25005350083812    3.20902826137591
H         5.67221686949051   -2.21252366494002    3.75894900577459
H         4.88118169373497   -2.38013396609110    0.88067078709015
H         6.03165689158839   -1.34876261166747    1.79500086057799
H         1.75419507161606   -0.24407058151220    1.31520792776062
H         2.35144187695275   -1.84402138914463    1.46848280881717
H         3.28656464234216   -2.69833183739214   -0.44545366968866
H         3.13556945742424   -2.09334537633228   -2.00185173437348
H         1.61798569809866   -2.41682530084421   -1.10613457982563
