37
 energy: -49.583816848233 gnorm: 0.138417204350 xtb: 6.4.1 (79825abcba525fcdf90b791dcacef51065a7a4e7)
C         2.31350978604689    0.44441184689437   -2.44824533258439
C         2.12367131250355    0.38427220214039   -0.92605642449698
C         2.79000155261806    1.61442278959617   -0.24675113285451
C         4.31780386774955    1.50655981689179   -0.43666569410065
C         5.02917576024160    1.67859073736406    0.91638937339088
C         4.24384179295855    0.99097264358689    2.02406949539200
O         3.02274719394840    1.76288329180185    2.26870242253224
C         2.27943549084121    1.97991149523988    1.12119393017565
O         1.16118419083464    2.49134283021238    1.18811335875260
C         3.84756170403467   -0.53313563039327    1.89776820740367
C         3.87658940629343   -1.25078773960412    3.38798214782332
C         4.80102727120696   -2.34609551956635    2.83870971371578
C         5.09583195756713   -1.54809065423478    1.60543528040077
C         2.52908630331822   -0.87655930939863    1.11517353265397
N         2.72478631893045   -0.80017268724516   -0.32551209165572
C         2.26735630088660   -1.99135791763306   -1.03641715210529
H         2.74850451231437    1.38521299868269   -2.79993083525974
H         1.27001891486273    0.40046553071508   -2.78919840632184
H         2.94849363759220   -0.32169143524865   -2.89991534003222
H         1.07838890741837    0.44747380688394   -0.61005789837733
H         2.48528298157143    2.51813717392682   -0.79206772187005
H         4.73761524898704    2.20957223612568   -1.17168023087320
H         4.60676980974996    0.49188805289591   -0.71617130395235
H         4.91228276566217    2.74835933784425    1.14944825686733
H         6.09491532335625    1.46747953207371    0.79297425276199
H         4.81597259364782    1.09903825834040    2.95264037887654
H         2.89298437260135   -1.62320783369467    3.68655081662064
H         4.34414305800567   -0.61925843213433    4.15625285957955
H         4.29327992374721   -3.29736382871454    2.66759952177500
H         5.65326850325507   -2.58233470814432    3.48444986192371
H         5.07933260436983   -2.08669020615925    0.63186384835126
H         6.03041708939702   -0.98879975138832    1.64151410520918
H         1.76585079856885   -0.17619463655731    1.48368472412870
H         2.23998604156893   -1.92195758262695    1.26634703155245
H         2.76125456051475   -2.82473970709249   -0.51850994604760
H         2.61978257335449   -2.05575516363071   -2.07064701888930
H         1.19895286442577   -2.21632830277098   -1.02970013138259
