37
 energy: -49.570625140769 gnorm: 0.141128759691 xtb: 6.4.1 (79825abcba525fcdf90b791dcacef51065a7a4e7)
C         1.70715548472381    0.42186832362897   -2.26935627892693
C         1.96453982381128    0.47105609944322   -0.75672667060823
C         2.56053769745409    1.83910321311724   -0.31859915565048
C         4.05978226505973    2.03176794232070   -0.63009214346970
C         4.89712530842202    1.09728065759466    0.25984759089184
C         4.35976834774461    0.72932265226842    1.63548478519373
O         3.36083962570793    1.72390546041717    2.03512179056867
C         2.32554224766030    2.00187283037342    1.15917503510323
O         1.24604087130554    2.41594328427675    1.58314272662786
C         3.84550572641728   -0.74130088478626    1.89758450135365
C         3.62504355747323   -1.00607490640836    3.51557580220566
C         4.71379747522477   -2.08614578865824    3.45196371658389
C         5.02980324460401   -1.86370627228197    2.00443188312944
C         2.63303710263214   -1.06132300146232    0.95086529612260
N         2.84150894916231   -0.64626678224195   -0.42898116662577
C         3.27041206644023   -1.80451052401039   -1.20876574047037
H         1.05545841971604    1.24665314871649   -2.57436584441098
H         1.14864587605177   -0.50662976891236   -2.45104771347392
H         2.58520302265727    0.38075312005106   -2.91856085380474
H         0.98762925584483    0.40953319024774   -0.26854077072234
H         2.07094497566831    2.68205169398052   -0.82521545748475
H         4.34131245689478    3.06508072220543   -0.37766417866319
H         4.35239328513795    1.82636435704910   -1.66129126461791
H         5.66845920461785    1.79611405519990    0.61909844419534
H         5.34791001147053    0.25995376587281   -0.27985312850499
H         5.17103533973366    0.75739525240694    2.37190416057284
H         2.62988832211781   -1.42627405563699    3.68415089997612
H         3.79821818359304   -0.14620995977378    4.17763197826216
H         4.28660934905970   -3.08851619241850    3.52096618598529
H         5.56706112808775   -2.03710325643108    4.13653685197833
H         4.83317940726904   -2.67442825964407    1.26804070885345
H         5.98568476852768   -1.35916645515270    1.86555264085967
H         1.74111879420517   -0.59945271427696    1.39807571813454
H         2.33557355858294   -2.11512327517495    0.93324887672374
H         2.57023855875403   -2.64166971617347   -1.08382533707200
H         4.12924760824375   -2.23107457127452   -0.68110361512474
H         3.44115699314586   -1.55460441348972   -2.25782998515670
