37
 energy: -49.577845550779 gnorm: 0.134986315557 xtb: 6.4.1 (79825abcba525fcdf90b791dcacef51065a7a4e7)
C         2.38792686171996    0.41834765989312   -2.38098810832125
C         2.23394884255510    0.38735108749758   -0.85388481814841
C         2.93134617106496    1.69132468385443   -0.37220864283882
C         4.45340969235543    1.44032579910218   -0.32526133582809
C         5.00464579955190    1.73204915424605    1.08095302629752
C         4.14891868253302    1.02092187514380    2.11948679171835
O         2.94889132212296    1.85965319803513    2.17629696017767
C         2.32258785057498    2.05073075676633    0.95661562539152
O         1.20383603535542    2.56334805653301    0.91031175713055
C         3.82848149324444   -0.51799505014478    1.96152930120034
C         4.03806057156950   -1.49499818750515    3.27991701568551
C         5.05840048229828   -2.36691759643636    2.53517027712086
C         5.01970124926102   -1.45472335524543    1.34727658581357
C         2.43847023633908   -0.81273629848666    1.29088194342888
N         2.61846024009196   -0.83201530612680   -0.15374270250867
C         1.97520980845890   -2.00788370435925   -0.73435690299765
H         1.76404142552249    1.21232024179796   -2.80334389613851
H         1.93523465927528   -0.49964051154270   -2.78026364747324
H         3.39987998874423    0.52762871869652   -2.77864755912673
H         1.16872241438607    0.54893089640612   -0.66507424680478
H         2.74330164156483    2.47233448235527   -1.12159919104779
H         4.91988527288162    2.02460106887889   -1.13256385786140
H         4.66262014916848    0.38759107765696   -0.52316047335023
H         4.90478934528743    2.79662067142994    1.34382453884103
H         6.04829490233784    1.41411138722219    1.15383762910533
H         4.55508979443085    1.15215988704786    3.12897047208407
H         3.03208458621220   -1.81467905680006    3.56475958128829
H         4.42713229157618   -1.02927146841980    4.19610333645815
H         4.63383711040079   -3.35664464180652    2.35577190166060
H         5.96806711646809   -2.56378481180441    3.11210555834149
H         4.64758277190103   -2.04218445218379    0.47858772908565
H         5.99495791447785   -0.99653372667826    1.18450666089946
H         1.68998179088658   -0.04817900681118    1.54397636198304
H         2.13667089884407   -1.82940751787787    1.56398763177333
H         2.50328642251042   -2.90544076903912   -0.38476432433006
H         2.03862534592105   -1.89099783996314   -1.82077250533278
H         0.92102090729588   -2.16793609092102   -0.49938523789053
