37
 energy: -49.580415426922 gnorm: 0.136491857701 xtb: 6.4.1 (79825abcba525fcdf90b791dcacef51065a7a4e7)
C         2.03240285723617    0.61890509225538   -2.39359466421395
C         2.09205156912582    0.37945519870048   -0.87839822081844
C         2.66787537060069    1.64860481496177   -0.18817484626932
C         4.11616417888356    2.06557193351242   -0.52055988594945
C         4.96786064490878    1.03075775066800    0.23453968053654
C         4.47356060270874    0.81668245617388    1.65804330467216
O         3.47274014106994    1.76948230315515    2.14517181550400
C         2.39184892788931    1.81865314066576    1.28166404062952
O         1.23719299214286    2.03466456307942    1.65130563980973
C         3.87904512504821   -0.62992890815283    1.88111920830332
C         3.56408753021584   -0.87664872785798    3.48627831983557
C         4.66233184180505   -1.94843369195771    3.51976153736982
C         5.03811200452806   -1.76588618441129    2.08095888531393
C         2.67992169899938   -1.03816888187346    0.95148769849986
N         2.88970426324031   -0.76800494448768   -0.46368408578062
C         2.65857149199544   -1.85332465496043   -1.41353103457601
H         1.19633728442160    0.10059073791351   -2.87354726312705
H         3.04988746029616    0.37148731239688   -2.72610480935118
H         1.82406242294415    1.66181435493483   -2.64471029189385
H         1.01710231267811    0.34898222359548   -0.67834747832850
H         1.98523064970352    2.40526460702362   -0.59852276889670
H         4.28421965918424    3.08699728911292   -0.14751561442811
H         4.27254974199623    2.01456468375954   -1.59950626915749
H         6.03262046470005    1.31103821272745    0.22383228949156
H         4.88252969249711    0.03638496851966   -0.21216095713349
H         5.29639792247567    0.89981799859883    2.37726715011452
H         2.54690239406963   -1.18630954869864    3.74076487587541
H         3.73922505470453    0.01793695799309    4.10005259814028
H         4.25140449916697   -2.89813039682580    3.86791717700444
H         5.47826727774259   -1.72390412036710    4.21470056056659
H         4.85202620057449   -2.69124766966297    1.49165316275619
H         6.04972304299571   -1.41848969560748    1.87235364498830
H         1.76502223362149   -0.52496989360914    1.28076777196393
H         2.56669345159573   -2.10513211233114    1.17071078473068
H         1.62758503109149   -2.21056245390766   -1.28650096893779
H         3.22962511764573   -2.73918286826488   -1.11834350371396
H         2.82262443657513   -1.65598194113973   -2.47479687032675
