37
 energy: -49.576688953556 gnorm: 0.134291849223 xtb: 6.4.1 (79825abcba525fcdf90b791dcacef51065a7a4e7)
C         1.65319930203729    0.77435555197453   -2.23318283978836
C         2.00436212648136    0.54155531529106   -0.75697038726130
C         2.82719879187357    1.79348106111109   -0.33942533235647
C         4.33131190087225    1.52195290904724   -0.55343020249059
C         5.03911911152359    1.17070302873294    0.76643155551903
C         4.21168519306235    0.62798792377406    1.92286430897748
O         3.04343996732087    1.47964431065547    2.16087228932898
C         2.47934729405471    2.14064535159744    1.08325160687763
O         1.59489108310546    2.95500065834929    1.34987649377426
C         3.67737318276166   -0.85684926646966    1.84759740180211
C         3.47247849429716   -1.20376208133342    3.45205194801289
C         4.85600940792005   -1.86670307840305    3.40371819538188
C         4.85359006779019   -1.99100451383798    1.91065734751250
C         2.50585054870557   -1.21966635547470    0.86542121350189
N         2.76017650839886   -0.66849280417284   -0.45792094323841
C         3.02621532387267   -1.65835017221325   -1.49857274819174
H         1.01996661213511    1.66615239144518   -2.27471200816280
H         1.08718235280743   -0.05486311794658   -2.67936069393500
H         2.59298058716837    0.91334634848966   -2.77319878621162
H         1.13089334669585    0.57505490554485   -0.09940299433263
H         2.51134331122780    2.64334108634960   -0.95982561270453
H         4.72552604709308    2.39829177261695   -1.08947108555729
H         4.44589997683133    0.64918642120731   -1.19866791933040
H         5.53193289590672    2.08891814788932    1.12196049167287
H         5.87950855008173    0.53914418108131    0.46563418927886
H         4.84627665047012    0.66044947145141    2.81589041737123
H         2.82848232233119   -2.07112992908462    3.62016138007317
H         3.35130687565167   -0.36366013735572    4.15006464504781
H         4.99869861887849   -2.86523886709593    3.82152620242878
H         5.68950396868744   -1.25350938646768    3.76202633708118
H         4.50065928950045   -2.99246758653523    1.57791928728087
H         5.78019185907857   -1.84657679298716    1.35558338213438
H         1.62529610881735   -0.78304724427150    1.35819624097158
H         2.48309373008504   -2.31337092270310    0.91623826027229
H         3.85480809849761   -2.34693674866363   -1.28416403057983
H         3.28000721235169   -1.16125456468376   -2.44009721671692
H         2.20548698297266   -2.37421742571384   -1.57655834539427
