37
 energy: -49.568265581419 gnorm: 0.130887148649 xtb: 6.4.1 (79825abcba525fcdf90b791dcacef51065a7a4e7)
C         0.86146233359746    0.48613820304862   -1.35925549549648
C         2.04404126845268    0.27828394699859   -0.40268970908746
C         2.81906426273819    1.61764681731397   -0.24722753360319
C         4.29673178193264    1.72059674049259   -0.68056556482147
C         5.13315062997396    0.86984188141512    0.29052777260559
C         4.49518111596329    0.59183575954959    1.64412697116983
O         3.52301445533823    1.57970729423369    2.11927443395311
C         2.73668743305834    2.17567968992063    1.14824612743470
O         2.05252345444830    3.15991509027990    1.43060494722507
C         3.86028686646891   -0.85093873969905    1.74998966955198
C         2.83364077718747   -0.97317798368710    3.04136879347313
C         3.87448245214584   -1.82806070990153    3.77744544172425
C         4.77209218876439   -1.92363155183390    2.58168193287625
C         3.45526637941603   -1.57757740091097    0.41705074740231
N         2.71916649737494   -0.98160034498673   -0.68869635553686
C         3.31907793259472   -1.14024538449778   -2.01100055868553
H         0.06059098566823    1.06535002080610   -0.88901230989029
H         0.44537173149137   -0.50541959461618   -1.58450026803804
H         1.14281175168557    0.97973517143140   -2.29270557545386
H         1.56053979182701    0.08690596125186    0.55963330277130
H         2.23026105461231    2.36154532610625   -0.80116709778718
H         4.47995668861538    2.79539630798578   -0.53241376425748
H         4.47787755104948    1.56844888774819   -1.74603293021739
H         6.04070758208180    1.46397351916941    0.47956013651398
H         5.41401428260566   -0.12129970389514   -0.07601555803753
H         5.31205007511152    0.74904122126286    2.35775659764098
H         1.88323821032850   -1.48169193429274    2.85842797745740
H         2.66349512568122   -0.03757403623226    3.59216028071329
H         3.61194246094776   -2.83408688569492    4.11058437306074
H         4.36643723457332   -1.26110174269911    4.57471730997173
H         4.88582104384029   -2.87963017241445    2.02370754056134
H         5.75933880375822   -1.48158577023110    2.71395818929156
H         2.97153566569068   -2.51506552602428    0.72682515619779
H         4.43719136390199   -1.94248151846721    0.09774176994136
H         2.45893816887845   -1.30979216233481   -2.67289332260859
H         4.12646457993467   -1.87922514902750   -2.01528823703139
H         3.74627472520060   -0.25254997037370   -2.48178970809380
