37
 energy: -49.577474770234 gnorm: 0.140992557484 xtb: 6.4.1 (79825abcba525fcdf90b791dcacef51065a7a4e7)
C         2.06264852412768    0.49546124576322   -2.33192858969681
C         2.04377488951566    0.46800015139993   -0.79713083007031
C         2.87215605266005    1.69687912777457   -0.32557676571020
C         4.38025345844432    1.44543414031055   -0.53605118278763
C         5.04078256250896    1.47516933542801    0.85291235682899
C         4.18063436482062    0.96424602880776    1.99991965425729
O         2.95851130844439    1.75594280994155    2.16238418876597
C         2.32740290771925    2.16072967501320    0.99866643077852
O         1.22192252351469    2.70096481381557    1.04951212992827
C         3.85973391789553   -0.58263082545579    1.99039177005826
C         3.84715861100627   -1.42162597791876    3.41606132628947
C         4.79447535884763   -2.43818328609793    2.76399774192609
C         5.10069753738023   -1.56692001895809    1.58424535441220
C         2.50837720150582   -0.85314377851277    1.23578633928532
N         2.67290144349286   -0.70519062161520   -0.20322376549386
C         2.63981429281999   -1.92506773399077   -1.00594135003378
H         1.59323115073946    1.42052715350716   -2.68108515629927
H         1.44039069503774   -0.35652790597230   -2.63846268733320
H         3.08599132725629    0.36565422551187   -2.69254496820547
H         1.01233710640022    0.52625203858837   -0.43767621125954
H         2.46291418860497    2.47502618741556   -0.98431155095721
H         4.83463544993011    2.19393625884504   -1.20238143141118
H         4.33399657001544    0.44159848693974   -0.96191238902088
H         5.17555460772240    2.53417324531034    1.12260195359820
H         5.98926364905805    0.93470130958069    0.79063890406060
H         4.73748068180319    1.20088812003052    2.91380060723833
H         2.85141125935141   -1.68968518355195    3.77931096129984
H         4.30201528603760   -0.90747806210450    4.27421800313176
H         4.28156659056350   -3.37287947856031    2.52891246907087
H         5.65772401388731   -2.81689333760643    3.32120943094042
H         4.88910544473563   -1.90538556488558    0.54555728775363
H         5.98439202809866   -1.00915185484582    1.89333447736836
H         1.73305230458841   -0.16393107777810    1.60006199375973
H         2.01043852927941   -1.81788044967325    1.37941833136597
H         3.23220954973102   -2.71573023289111   -0.52572344620827
H         3.11478430906600   -1.71277886376615   -1.96891570763749
H         1.62124067339097   -2.30976018734653   -1.08756358169864
