37
 energy: -49.562098899339 gnorm: 0.142532162474 xtb: 6.4.1 (79825abcba525fcdf90b791dcacef51065a7a4e7)
C         0.82454562299249    0.66947898207286   -1.22289443485774
C         2.02986133628386    0.32827996400796   -0.33547587308918
C         2.84343315718760    1.65168465380702   -0.26183470474297
C         4.27673033438997    1.49880228826910   -0.81334902550762
C         5.26509789292090    1.02292192995734    0.26510822657968
C         4.66241617853956    0.65433593693832    1.61323374204604
O         3.74414072125333    1.69205889374936    2.08932674872033
C         2.81688927770295    2.13698913930033    1.16270325085412
O         1.89633553945381    2.87339572901744    1.51881046228223
C         4.04533727200294   -0.78978275492291    1.78536945077446
C         2.76112040944876   -1.03777292972537    2.79823301786907
C         3.60949150374216   -2.04203677007138    3.59051158498153
C         4.86989362286824   -1.72093437740424    2.84689397575936
C         3.70185253486227   -1.51497069102281    0.43448372712708
N         2.87382701722209   -0.83988020059201   -0.55462442618349
C         2.96233826584564   -1.30222946814887   -1.93735697800798
H         0.15475908577991    1.42615411228279   -0.80237256388142
H         0.20407340482340   -0.20166496101093   -1.47424262981382
H         1.27410541818417    1.01918449445398   -2.15548575331835
H         1.71519746138012    0.17907651188307    0.70143770669798
H         2.29454159002666    2.46316657199877   -0.75896487130216
H         4.52840399504494    2.48197823560039   -1.23848412915488
H         4.32419972085041    0.88503377009118   -1.71458059353036
H         5.97572025195296    1.83867874397209    0.46990554036126
H         5.78406815882111    0.15255646147732   -0.14566404746368
H         5.44972103696479    0.69160118839109    2.37482291142148
H         1.86418197705905   -1.53130611604886    2.41450751323687
H         2.58299577274379   -0.13076616714683    3.39261160576695
H         3.13340103902959   -3.00103505119396    3.37683512655351
H         3.70249847807909   -1.79881101912676    4.65413527209496
H         5.30611739625420   -2.54600210812873    2.24094422522965
H         5.49651572548250   -1.08817037498807    3.47499573318680
H         3.24935186359711   -2.47415084931709    0.72440809932308
H         4.63915168024295   -1.72262395811811   -0.09243215077755
H         2.68273526804366   -2.34245121544049   -2.15287825626486
H         3.98984085546198   -1.21889946675243   -2.30515749602808
H         2.41798751173075   -0.63768419708084   -2.61130394809852
