37
 energy: -49.577035709272 gnorm: 0.146343811688 xtb: 6.4.1 (79825abcba525fcdf90b791dcacef51065a7a4e7)
C         1.92622420522522    0.39794340067401   -2.36129770317256
C         1.94896815336313    0.42053042326027   -0.82647294582019
C         2.71288883521241    1.67610539764437   -0.31786819317783
C         4.23790468122529    1.55819346007706   -0.52355073452241
C         5.01934964337420    1.40791924176227    0.79294614209889
C         4.29848446264299    0.82033303711325    1.99777773172800
O         3.16623705357183    1.73375079771401    2.17226875790842
C         2.41092640200714    2.13462123857814    1.08360078056931
O         1.53403313664185    2.94682404746021    1.38009863863916
C         3.83515613715330   -0.68818227600742    1.92291557828433
C         3.64618162226482   -1.34034620969123    3.43141667749906
C         4.91981111530834   -2.13069818588097    3.10096792616346
C         5.08233345903430   -1.71517590487609    1.67071790572184
C         2.54252188924536   -0.95867999421682    1.07162285597618
N         2.73907219227734   -0.70756854021025   -0.34894727061586
C         2.58424110911380   -1.90205859400693   -1.17524704405727
H         1.40255813542437    1.27651725828469   -2.75103060951049
H         1.38458557649710   -0.51534354315255   -2.64341120435068
H         2.93046945171341    0.35329489560757   -2.78980969178053
H         0.92141414448302    0.46631707233533   -0.45431551797593
H         2.40051943538041    2.53432118009327   -0.92845339633142
H         4.58216146649083    2.36622410295366   -1.18633891345039
H         4.47769156231693    0.67609223907224   -1.11985868415836
H         5.22664869377551    2.45177949801597    1.07537867331595
H         5.90319604017848    0.82841157132333    0.51261338199313
H         4.81702857679802    0.95804179437807    2.95349945111876
H         2.70884057887489   -1.89058728304337    3.31332615379771
H         3.54144942501833   -0.62618633825506    4.26007970379693
H         4.89973840037695   -3.19994837288553    3.32073732273008
H         5.77936433835458   -1.83695583515771    3.71251359160617
H         4.93080785869846   -2.44395886510109    0.84360338691140
H         5.99253076648964   -1.15951884537037    1.44634443077448
H         1.72365070832778   -0.31122898749830    1.41672687992604
H         2.26988543939232   -2.01050040434398    1.20812606384927
H         3.30190213799566   -2.66262610223230   -0.83881238351596
H         2.73635363524825   -1.79579322928847   -2.25392778799764
H         1.58203930838570   -2.31581837748265   -1.04665043600916
