37
 energy: -49.567711638533 gnorm: 0.147132513517 xtb: 6.4.1 (79825abcba525fcdf90b791dcacef51065a7a4e7)
C         0.78423758318035    0.63603614641588   -0.88670005099175
C         2.10991001994049    0.29530817850024   -0.19156587423790
C         3.02204540898964    1.53737111205608   -0.40135348594061
C         4.52793150908380    1.35618715777185   -0.68659254606010
C         5.22281305514947    1.33178958968204    0.68561262038706
C         4.39221038128817    0.69563659017781    1.79102289665370
O         3.21778937531007    1.53517945311852    2.04135550625191
C         2.79655723904069    2.22584700623254    0.91799842973815
O         2.28226241757777    3.33818102254916    1.03940716817948
C         3.94733307393777   -0.81715502147304    1.69385485833705
C         2.70277430955400   -1.24430352891877    2.69646262165843
C         3.67475464374631   -2.12121483399372    3.49787730350410
C         4.85549063034773   -1.80027256981243    2.63326988453131
C         3.84061836480878   -1.44334293541931    0.25674935251263
N         2.75766054301265   -0.95070486559719   -0.58242792875517
C         2.89780544549660   -1.29806989785864   -1.99425205912116
H         0.46297436012996    1.62792876493774   -0.55361014358263
H        -0.00751343352441   -0.06955391090134   -0.59977416036054
H         0.87965000775561    0.65287435414605   -1.97515651259774
H         1.92692574604339    0.14785055175369    0.87672145389075
H         2.57134678573885    2.20954571388725   -1.14430390887085
H         4.92455052502362    2.19207979774458   -1.28215218671249
H         4.77928256331061    0.35587813605462   -1.04350709971770
H         5.26314251760778    2.35788738875099    1.08295644168375
H         6.17644747907197    0.79683804475232    0.68273386425987
H         4.83797249967894    0.75143189646543    2.79074222118141
H         1.90220586150385   -1.75799294293768    2.15745225548467
H         2.20161636891635   -0.36550957635563    3.12569154185737
H         3.33192133232577   -3.15630876572154    3.55304372262913
H         3.88233174478043   -1.57227894114795    4.42236934985550
H         5.26343749610180   -2.69017051030781    2.10424810047872
H         5.66901620914278   -1.25004151632323    3.10547670373884
H         3.64498888790220   -2.52394316750289    0.31033888984320
H         4.78718913446562   -1.30971878603946   -0.27751488658643
H         1.91021242210603   -1.47572083794969   -2.44122937612581
H         3.53343560036374   -2.18618873274362   -2.06637649055731
H         3.48018203764363   -0.53114184050495   -2.50884077443231
