37
 energy: -49.573439366231 gnorm: 0.129406524566 xtb: 6.4.1 (79825abcba525fcdf90b791dcacef51065a7a4e7)
C         0.94215676595459    0.40764372972646   -1.53779764112827
C         2.08815193289556    0.43709603142191   -0.51674812737078
C         2.80671251296482    1.80492654024534   -0.33945595126291
C         4.33613079108464    1.82537088700939   -0.54523165504789
C         5.16617918324039    0.90207973626546    0.36303907268546
C         4.50184482403329    0.52648687106800    1.67989638009357
O         3.55185412022826    1.59556656957615    1.99825083949379
C         2.66053402139356    2.17565215069535    1.11200117639854
O         1.81740803289046    2.97350361723470    1.52321620440296
C         3.82462382827274   -0.89985421651447    1.73298812573828
C         2.96235466199382   -1.00347529079151    3.14095093606258
C         4.07552761616911   -1.87873524423445    3.73319302501640
C         4.84177833214324   -1.96161912453943    2.44840607879077
C         3.15836662923337   -1.52725073502632    0.45578550312325
N         3.11145425617992   -0.59133446244741   -0.65847138403807
C         3.20267239100804   -1.32315693216362   -1.91929079063987
H         0.29547786502128    1.18348564909885   -1.11603274142828
H         0.41551207138704   -0.55508087693017   -1.59127812512209
H         1.19194527531726    0.67964298814147   -2.56626573629782
H         1.57557436659434    0.28084252165345    0.43683138620620
H         2.34308947110371    2.63851241342823   -0.88453532768383
H         4.67458412618535    2.82819276801016   -0.24437944428272
H         4.48445070641523    1.68655958439508   -1.61757306956216
H         5.97567597428063    1.56305090329957    0.70976278075688
H         5.52944904008067   -0.02674442619084   -0.08520275026116
H         5.15446849332492    0.58834383134713    2.55825380395288
H         1.98123259714018   -1.37536361388237    2.83367678378480
H         2.79971882042840   -0.06929064419740    3.69640047680561
H         3.74791336781102   -2.84127913238512    4.13090602393379
H         4.54409051917468   -1.30126977687711    4.53698830385421
H         4.89163945585237   -2.96168981057941    1.96304484490595
H         5.86453781332822   -1.60451896837066    2.56672717103528
H         2.15219524027170   -1.87901491873499    0.72545324234145
H         3.79321497319185   -2.35766920505926    0.12919298424741
H         2.57266768632470   -2.22150775116343   -1.97171635007382
H         4.22268778438963   -1.72008145517836   -1.91780189879215
H         3.11836002373540   -0.76705248102005   -2.85512301476712
