37
 energy: -49.580430326606 gnorm: 0.136508841058 xtb: 6.4.1 (79825abcba525fcdf90b791dcacef51065a7a4e7)
C         1.79486035295878    0.50788242640643   -2.30759208181167
C         2.04126270986318    0.32838648671494   -0.80300523803031
C         2.82124971286712    1.56580396137047   -0.27466786011884
C         4.33497131300753    1.34132834068015   -0.47501620109535
C         5.08180675406285    1.57445040891303    0.84948125765212
C         4.30301941210032    0.99285479317528    2.02070289075530
O         3.08946582778108    1.79495684043841    2.19586941482303
C         2.33850987079210    2.05845394936796    1.06316306799233
O         1.38196746503376    2.83036670200397    1.13868458260654
C         3.82936855847371   -0.51318824025580    1.96252093181428
C         3.76719854603382   -1.27480835464707    3.42972043805424
C         4.79423288399897   -2.30212536629008    2.93393325976065
C         5.12089177570875   -1.48639683545816    1.72043899685569
C         2.63864759126340   -1.02837530846917    1.07621543434034
N         2.78810535624659   -0.84246969141919   -0.36003312474097
C         2.41904459964925   -1.97238703187887   -1.20893324916723
H         1.58198838225868    1.57795757476578   -2.39496838451530
H         1.03925834507638   -0.15164295414164   -2.75608438251231
H         2.74354377339722    0.45190167078653   -2.84702738728501
H         1.01988993389937    0.40381102504576   -0.41885214268786
H         2.56555877001687    2.39367031004960   -0.95008085449741
H         4.68592644474313    2.12626921251601   -1.16161124230346
H         4.57876891698215    0.39845641009183   -0.96770141347216
H         5.12872665874236    2.65684567068377    1.04596097520795
H         6.08663019700828    1.14902648382378    0.91979752005771
H         4.91074936113792    1.17030826413872    2.91537057616474
H         2.81714711083440   -1.69475859434943    3.77084048943137
H         4.20842827532180   -0.67700913247226    4.23942901329084
H         4.29905682135326   -3.25512171901135    2.73747440967954
H         5.67362659263691   -2.39072366087498    3.58040170974436
H         5.10478584639599   -2.04922630932701    0.76066474218651
H         6.07005788213832   -0.95103356366558    1.72565715081957
H         1.68986485375716   -0.60011767532757    1.43011698360993
H         2.57738653934154   -2.11568662371396    1.19150253177387
H         2.79666238827874   -2.89640378114309   -0.75036327750118
H         2.98179389396907   -1.99094423250071   -2.14752344590125
H         1.33606062661262   -2.05408937016569   -1.32124146047044
