37
 energy: -49.581810251619 gnorm: 0.139144054093 xtb: 6.4.1 (79825abcba525fcdf90b791dcacef51065a7a4e7)
C         2.53965010150317    0.27802264353583   -2.38365723617988
C         2.20071704488968    0.39783648111971   -0.89118160408459
C         2.85850102642193    1.68424061034489   -0.31567594974778
C         4.38636082801117    1.47050301389601   -0.27275117723977
C         4.99110958223582    1.59144920043526    1.13652295498940
C         4.09421396677444    0.94313377074666    2.18140988566985
O         2.86079814257970    1.73398621569697    2.18034552549333
C         2.24107000746085    2.09149394551810    0.99522337356987
O         1.31578396602228    2.90341305961035    1.02927146175146
C         3.80016939205118   -0.59077386178678    1.94358411150404
C         4.00107681320314   -1.50001592854165    3.31088795232020
C         5.23606645367643   -2.14695228597018    2.66881425016213
C         5.05378872429006   -1.45753042021354    1.35118011390221
C         2.46769510821859   -0.86942459542896    1.15895830429572
N         2.52523148942752   -0.89248405533754   -0.29564345211556
C         1.88733523482585   -2.04068975727099   -0.93459766669048
H         2.08164567826898    1.11809420633880   -2.91518487462345
H         2.13962234979346   -0.63173463093541   -2.85202991504040
H         3.59574279031888    0.43855379558349   -2.61392340128208
H         1.11169998145607    0.49375598101848   -0.85504168831347
H         2.56439164869390    2.49502284865256   -0.99615747017908
H         4.81338829371666    2.24534228043160   -0.92695763456321
H         4.65676542833272    0.49323911879947   -0.67650867448149
H         4.99356808944477    2.63621237443125    1.48415657695695
H         5.98689870535083    1.14504327945623    1.20526764531213
H         4.48097599422041    1.02451145236357    3.20368603014304
H         3.12192204403250   -2.10256237278838    3.55449318063204
H         4.09934974570284   -0.89825875980288    4.22516707047144
H         5.36439054125242   -3.22980066888627    2.61431865875747
H         6.07701936539542   -1.79837828465669    3.27741820734947
H         4.64226032751079   -2.15335579954909    0.58654002635720
H         5.86920691158572   -0.86001500248977    0.94420853664449
H         1.70442462341255   -0.20510179292182    1.58899665030696
H         2.16721557217155   -1.86787930397550    1.49375701240956
H         1.98820214922356   -2.94654769678743   -0.32146161154071
H         2.28538018372569   -2.14573755472235   -1.94875143904398
H         0.83236182365004   -1.80048173624112   -1.08113742972640
