37
 energy: -49.582768290500 gnorm: 0.155169931252 xtb: 6.4.1 (79825abcba525fcdf90b791dcacef51065a7a4e7)
C         2.09293517355568    0.62089027817907   -2.40202031306991
C         2.11047857180130    0.42647860854326   -0.87932179663978
C         2.66496681520837    1.74345767630230   -0.26545620852602
C         4.16870307859428    2.06052053773355   -0.40733720627613
C         4.95534042028934    0.97361046767362    0.34514587333248
C         4.46985734183370    0.77887106653522    1.77444851903302
O         3.37248388856372    1.70240383149399    2.07381792625632
C         2.31590469609531    1.86254554658648    1.19382685431024
O         1.37554595422638    2.47813587803089    1.69711617821642
C         3.79163306574525   -0.64220527710232    1.90270511963866
C         3.50531629281668   -1.08143453802888    3.47168729359055
C         4.75162383091413   -1.97644837696392    3.43103694952144
C         4.99468163513390   -1.74757927279666    1.97047910083147
C         2.60842416435870   -1.07016137200288    0.96161966766579
N         2.77249640884961   -0.80269904947162   -0.46008796696100
C         2.63739735403956   -1.93681993242749   -1.37061994242575
H         1.67246928018751    1.61778255074385   -2.56762265507781
H         1.51725631728205   -0.17801155326275   -2.88926068119369
H         3.12447819718114    0.51602566941613   -2.74705208577535
H         1.08183881930184    0.42346017387394   -0.50735951748011
H         2.06319947958296    2.53903518471400   -0.72573410225829
H         4.45563908481960    3.02972070319536    0.02744225885500
H         4.44651540971845    2.04663300303647   -1.46270961196590
H         6.03374158166025    1.18580202847930    0.27873105055875
H         4.80480683976208    0.04537582693842   -0.21281482549854
H         5.27373718644556    1.00365881177611    2.48473250825593
H         2.56322332445964   -1.63561351903628    3.49748122023232
H         3.51053850713859   -0.16366086098291    4.07612072344680
H         4.57896904266017   -2.96280018162776    3.86612073637791
H         5.57472650888857   -1.58403271143078    4.03735067707041
H         4.72185035911461   -2.63061891561741    1.35079601924949
H         5.98258155290189   -1.39486337044945    1.67517823844463
H         1.69238005643425   -0.62121153239522    1.37167674915850
H         2.60580260286887   -2.15112437267849    1.13712475499099
H         3.24582926986538   -2.75528025019031   -0.96242652468329
H         2.93946927998403   -1.54560277096022   -2.34718759156935
H         1.60916083175523   -2.30350825117597   -1.39091801616654
