37
 energy: -49.580979023925 gnorm: 0.141103582306 xtb: 6.4.1 (79825abcba525fcdf90b791dcacef51065a7a4e7)
C         1.88191401873853    0.52972339322166   -2.37649763728481
C         2.03532997281875    0.43766543478002   -0.85179985157164
C         2.62883416052598    1.71282332411317   -0.18813787546973
C         4.10347310739721    1.92845787493648   -0.58916600656859
C         5.02332994424585    1.05496030370206    0.28104545126798
C         4.52852434970033    0.82590540936262    1.70203967723077
O         3.55226849727157    1.84884321578234    2.08581834851050
C         2.41503551153355    1.83756509483206    1.29653817604531
O         1.35682056261471    2.21082847072405    1.80386621321958
C         3.87168038598489   -0.59551686964062    1.91182678864417
C         3.54373057182407   -0.85921841907808    3.51167525922112
C         4.17315151384999   -2.23991767928542    3.28041017832877
C         4.97821337917757   -1.78431649337940    2.10185583010326
C         2.70117606390632   -0.99966754444363    0.94469006224447
N         2.89549597755063   -0.67227013320905   -0.46057117331165
C         2.92806661589534   -1.80618699498999   -1.38074623582923
H         1.33829752495393    1.45732681035200   -2.58154133355623
H         1.26466267636472   -0.32993877407465   -2.67151493405721
H         2.83913486204861    0.62665956838197   -2.89462518288414
H         1.02862204795975    0.32858414268069   -0.43815117988390
H         2.15673060246349    2.57530115889627   -0.67821283637319
H         4.39439820162534    2.96596233980492   -0.36631740417529
H         4.24333495629722    1.81543057445684   -1.66566355136017
H         6.01980089189806    1.49824614829191    0.43246728396067
H         5.11296844037662    0.08638764881454   -0.21838622493980
H         5.34498529992044    0.95473340969318    2.42179696777544
H         2.49971795058358   -0.83458735219926    3.83532597563178
H         4.16914779853247   -0.20913510620982    4.13930615824641
H         3.51590283694310   -2.98631474225732    2.82995145065088
H         4.75567430258725   -2.67652710553711    4.09842229397558
H         5.12415949483979   -2.53779193747425    1.29614029775687
H         5.95656950395138   -1.39706062900179    2.38542160345913
H         1.87925464516173   -0.45154094570829    1.42722711820728
H         2.45804115208766   -2.04793379050462    1.14794657639166
H         3.46588227198488   -2.61329648830639   -0.86497773094349
H         3.62571582904330   -1.52845084137827   -2.17706959782801
H         1.99538714017571   -2.27989036079118   -1.69356695091533
