37
 energy: -49.582030585660 gnorm: 0.129046368161 xtb: 6.4.1 (79825abcba525fcdf90b791dcacef51065a7a4e7)
C         1.93087836373216    0.76475906934677   -2.40475788574575
C         1.97947838754850    0.47882038527640   -0.89724616473164
C         2.68901664984777    1.69896803352907   -0.24416325781501
C         4.21958653080052    1.80452057256606   -0.41178295596949
C         5.16053952715222    1.06313942876087    0.55328909260357
C         4.38107519162058    0.69441654462545    1.80748289908513
O         3.30101750329072    1.60289482753145    2.20106378975701
C         2.39190652550347    1.93716226920047    1.21203812523357
O         1.33684868059527    2.48815853732321    1.52792139994485
C         3.78753177570590   -0.76968788318940    1.80686033325308
C         3.54615040680126   -1.04703859331203    3.41975101801922
C         4.85888122776079   -1.84164329028634    3.45616354571391
C         4.85057904336266   -2.00184099286779    1.96654776754146
C         2.54916813970554   -1.01168387424994    0.87055639668075
N         2.78729186521993   -0.67641902292600   -0.52608351256291
C         2.77122338609043   -1.88440870803847   -1.34709093414285
H         1.33539930272905    1.66211751776694   -2.60010991199848
H         1.38003545449907    0.01731529165469   -2.99208518383523
H         2.89323151189476    0.91383379512305   -2.90051757339239
H         0.94965397780819    0.38479176650459   -0.54075618067012
H         2.15689053045411    2.53038516118034   -0.72635680631578
H         4.49358045544914    2.86999096326791   -0.43214480999826
H         4.56098575119239    1.39351811441020   -1.36346937401737
H         5.97159187214899    1.77086792250350    0.78502112312244
H         5.63830621696819    0.20320741081893    0.07594649077449
H         5.14932655576088    0.76618707261854    2.58587518244593
H         2.68026777090008   -1.69206273961443    3.59153562103092
H         3.43700833764240   -0.16981141685734    4.07261858276656
H         4.81465031854346   -2.78020377547392    4.01217191332208
H         5.71400483570890   -1.27749348883239    3.84294905165980
H         4.34510737002540   -2.97019425629366    1.75443132219693
H         5.81759789872039   -1.94411678061881    1.46744877577961
H         1.79445352839739   -0.34160563401127    1.30672221093015
H         2.24078388415931   -2.06169146270820    0.91146051238400
H         3.59192379645482   -2.55118669279605   -1.04952326021862
H         2.95057546326390   -1.53093524428009   -2.36732230082615
H         1.82527905749690   -2.41694132530079   -1.22986878412197
