37
 energy: -49.570154768078 gnorm: 0.147192186795 xtb: 6.4.1 (79825abcba525fcdf90b791dcacef51065a7a4e7)
C         1.92856016966711    0.57729934480957   -2.48899227128258
C         2.11050351457484    0.54335085359187   -0.96503080844405
C         2.76564262899235    1.80705842972819   -0.33848635234504
C         4.30874826795743    1.83230536125383   -0.33015478709748
C         4.98967403337570    0.89416082602688    0.68109569065959
C         4.23843287859154    0.78321710556956    2.00013001353968
O         3.08084905096203    1.67333724025616    2.12033455269157
C         2.27968013566513    2.06683836551890    1.06218783835163
O         1.27326053326198    2.70363554121829    1.37545306655830
C         3.74802291431043   -0.71841669106254    1.97799514329780
C         3.63688064975597   -1.28968244581216    3.52651299772311
C         4.94684575490337   -2.05603543786087    3.29699346265111
C         5.00114651129619   -1.75834158105408    1.82964306351081
C         2.56766815233455   -1.04292740380602    0.99299411944056
N         2.75182003918782   -0.63362675496213   -0.39202193302367
C         2.86970318915034   -1.77811583455083   -1.29191011155163
H         1.15941903411027    1.32940779282400   -2.69089496461726
H         1.55218363276214   -0.35209117063031   -2.93802169581677
H         2.78382280828429    0.90606153825161   -3.08444650643798
H         1.07849415011757    0.50334357692688   -0.60472416032367
H         2.29795853113790    2.65655993695070   -0.85476343111651
H         4.46515079617154    2.85168224742713    0.05341195972566
H         4.70197534004085    1.65817033136519   -1.33326641435006
H         6.00915898557189    1.29238146377490    0.80132886042550
H         4.99337128228652   -0.11383527443250    0.25738559246409
H         4.76802948744013    0.98021304700316    2.93926564321213
H         2.76591009305631   -1.91719056845677    3.73378739306704
H         3.68472187551845   -0.50063712824036    4.28992262973762
H         4.93369036006094   -3.12873640636261    3.49981611948337
H         5.81766293305060   -1.55329216506951    3.73061894069790
H         4.67633739602123   -2.64007162545181    1.23361100752043
H         5.83631408890636   -1.42009156645695    1.21674877753289
H         1.66819367932899   -0.56131681317620    1.40267265346236
H         2.32706712781077   -2.10791048695605    1.07791816336760
H         3.31377535288424   -2.61835668624360   -0.74101649012927
H         3.43415971319288   -1.53680311765731   -2.19807769619106
H         1.90523188864418   -2.17061181119819   -1.62036817862750
