37
 energy: -49.580072177783 gnorm: 0.152360002558 xtb: 6.4.1 (79825abcba525fcdf90b791dcacef51065a7a4e7)
C         2.22049566187967    0.47732686858781   -2.34275980334870
C         2.11980988211370    0.35950013947663   -0.81544394500236
C         2.61065139991195    1.74141156402913   -0.29764328209798
C         4.11241141328724    2.01750366273109   -0.52208008198432
C         4.92114900939918    1.02458145729539    0.33024122442694
C         4.41095728950734    0.90331278916605    1.75905949354228
O         3.36454512110718    1.87980714133681    2.07249795493938
C         2.33381070401989    2.00894552671772    1.15745746548476
O         1.29676148370441    2.54030180592729    1.55584872428909
C         3.83853055749088   -0.55261033066065    1.97931262629089
C         3.57357388490354   -1.21501629124168    3.47183432282084
C         4.57065484955293   -2.32785030593098    3.12053002462422
C         5.08705660842507   -1.60645331595607    1.91321771851448
C         2.60471649559257   -0.93010544357235    1.08266781280499
N         2.85725362999760   -0.80694494154034   -0.34588563475857
C         2.60900647600806   -2.02866549448797   -1.10701814860186
H         1.82211552722623    1.46951151797505   -2.57700925741645
H         1.58829831304031   -0.23462170032540   -2.89094701374810
H         3.28623497119816    0.38305318281820   -2.56510351618051
H         1.09266061591570    0.39420322921411   -0.44097780636628
H         1.98208532484784    2.48362186967612   -0.80847771128254
H         4.38462965339658    3.03918027925522   -0.21746795191711
H         4.51816640833313    1.96132993369648   -1.53370791398037
H         5.94804000482866    1.42185870111854    0.33737822187354
H         4.85876426950889    0.07269655129270   -0.20419616815623
H         5.13623229288860    1.06612994804666    2.56449257448399
H         2.52379127349670   -1.48922631001208    3.60631169786492
H         3.99499788480353   -0.66822401523089    4.32687559644546
H         4.04888558966589   -3.21047155051542    2.74538466417755
H         5.36678096908611   -2.67087046868626    3.78957769141858
H         5.24863779495674   -1.96961274881279    0.87388630351006
H         5.94749907576384   -0.97937465250486    2.14552889039479
H         1.78675639294555   -0.28432784739220    1.43302787573963
H         2.33021822313337   -1.94299594453958    1.39570689282113
H         3.26062775653990   -2.78126290423563   -0.64260947725796
H         3.01941764420689   -1.74834952311903   -2.08219419949397
H         1.56692202161986   -2.35454636047274   -1.10493421154961
