37
 energy: -49.578343746277 gnorm: 0.151055503312 xtb: 6.4.1 (79825abcba525fcdf90b791dcacef51065a7a4e7)
C         2.25714145644266    0.42632262915511   -2.28646522993089
C         2.07674179543880    0.43890259587822   -0.76199410529936
C         2.83251777434569    1.73796476852590   -0.36204126607371
C         4.36277616067923    1.55196388841296   -0.43683969304403
C         5.01379238206306    1.71468862177407    0.94739335785179
C         4.25313080083036    1.01243459480585    2.06307993994908
O         2.96563160317212    1.70453360809706    2.16361893499958
C         2.30444094574206    2.07742526268086    1.00596269026939
O         1.17162018830403    2.55734162804906    1.06003298036007
C         3.90467646093460   -0.52227980157201    1.92477878902816
C         3.89762928316052   -1.34368634705080    3.36069186136951
C         4.79521545765891   -2.42649783541063    2.74600247383894
C         5.10032723099378   -1.57375730244599    1.55250853647675
C         2.57666755407522   -0.88594889968312    1.16787144265410
N         2.68017864335712   -0.79806476381285   -0.28170445731008
C         2.27575744545348   -1.99091026271768   -1.02137571685353
H         1.89463011726100    1.38544345416316   -2.66945699009705
H         1.74353631218767   -0.35887050254756   -2.85807258819966
H         3.29474491007628    0.38629084640353   -2.62690767406320
H         1.00796379790913    0.40637697985080   -0.53151529366989
H         2.49419656922781    2.57939140075603   -0.98209226992753
H         4.80216776139018    2.34521410194710   -1.06005999652988
H         4.67355658287237    0.60615555861797   -0.88410427717706
H         5.00231557127918    2.76971094517630    1.26232421115239
H         5.99494517944934    1.23553323330796    1.00526696454480
H         4.65948648713484    1.09655207280534    3.07750342325551
H         2.85697902072099   -1.52668236286100    3.64154471560651
H         4.44633052342159   -0.74600625952381    4.10189428349923
H         4.12412531728061   -3.26415370229795    2.54608215763458
H         5.56378325788154   -2.83111726330593    3.41285407862905
H         4.99241128062636   -2.16484800265088    0.61593554710177
H         6.07564920056564   -1.09778072493739    1.45376286947477
H         1.76276413015586   -0.26046626984673    1.56179058846003
H         2.40093002421665   -1.93793599582930    1.41632546535786
H         2.66907362200027   -2.78763104064276   -0.37544463959973
H         2.84282881981452   -2.10654724269139   -1.95037563142752
H         1.20986010981104   -2.20426077312762   -1.12378235418806
