37
 energy: -49.574643072932 gnorm: 0.138202040399 xtb: 6.4.1 (79825abcba525fcdf90b791dcacef51065a7a4e7)
C         1.71627986670652    0.46166087131768   -2.27183969553795
C         2.02779785968711    0.49149601440510   -0.76891558346715
C         2.83065762162875    1.76353654687208   -0.37388239762223
C         4.32349177176136    1.40563037189117   -0.53272585292690
C         4.99411981183062    1.48945105270770    0.84916948787391
C         4.21891581320952    0.93759111756487    2.03703845952393
O         3.05663605589466    1.81873974450264    2.17648799757760
C         2.37963051145584    2.13887772253445    1.01220090994625
O         1.40316719656124    2.88459746283723    1.09555347269019
C         3.85575321867852   -0.59483228027823    1.91178923437144
C         3.80198586040301   -1.35684560005799    3.37911656546341
C         4.79917458071743   -2.40753241569697    2.87151773444687
C         5.11229544084211   -1.60653552241614    1.64471428800467
C         2.53074759195535   -0.95011321946860    1.14569059238749
N         2.66707513121493   -0.72648739860259   -0.28648074265861
C         2.71121804455720   -1.94662861810744   -1.08826453343426
H         1.54403065344038    1.46515975692147   -2.67349888459406
H         0.95002789700947   -0.30917814667161   -2.43220988396621
H         2.59693479027259    0.02699754972710   -2.75104657430555
H         1.11804612735016    0.62933545622757   -0.17746238324009
H         2.57607030434436    2.55047418468223   -1.09695757357485
H         4.85343254079851    2.09211797777256   -1.20993481368723
H         4.43237251241000    0.43510820986148   -1.01997855570649
H         5.06183918877520    2.55441709104858    1.12054872998358
H         5.99354477510472    1.04588619665218    0.84929176440975
H         4.74294427027310    0.98783989696645    2.99835262965150
H         2.79561509638635   -1.65246356593749    3.68757521175288
H         4.17834086986444   -0.71184349861419    4.18534529397668
H         4.24270091179659   -3.32210680795445    2.65730242622531
H         5.65497880740337   -2.47689856463755    3.55114400855407
H         5.21676055081387   -2.24515666403841    0.73947779745446
H         6.06445949305873   -1.07680208627530    1.62672928413861
H         1.61848776725683   -0.50301990868606    1.56608227920257
H         2.28375507740063   -1.99974329061477    1.33690077609494
H         3.35458319386194   -2.68063067218395   -0.58426966229138
H         3.28809291339242   -1.70331359540742   -1.98603726545340
H         1.74816353845166   -2.42458731483256   -1.27859106212439
