37
 energy: -49.583900496620 gnorm: 0.126825700316 xtb: 6.4.1 (79825abcba525fcdf90b791dcacef51065a7a4e7)
C         2.04478318062072    0.48765785440310   -2.42649294073224
C         2.06947911253871    0.42022916132881   -0.89301390667132
C         2.83727460402321    1.63656144114874   -0.30161897825679
C         4.37379085636135    1.53402117946692   -0.40401585213824
C         5.15934970661265    1.59445844730539    0.91721357797991
C         4.28709430713342    0.99077092291838    2.00865995325441
O         3.10830190596095    1.84939631837771    2.14999006618818
C         2.27154153754793    1.96706958189541    1.05346175924775
O         1.14588106257704    2.39812303749740    1.30566717062287
C         3.92506290550976   -0.53755718062504    1.83824173832622
C         3.87252274275222   -1.18424378520956    3.35996467379977
C         4.82230280885765   -2.30582937444412    2.91730420044989
C         5.08325891736247   -1.66452542835593    1.58865129154430
C         2.59378483720038   -0.82929136399489    1.05634567096538
N         2.71391660609551   -0.78833241697242   -0.39403330507745
C         2.27450063634074   -2.05257283831030   -0.97897793784366
H         2.15697307323762    1.48213602494753   -2.86970451599441
H         1.09162014744613    0.08864297582497   -2.79974998829399
H         2.90364564534619   -0.05045703061182   -2.83504178667242
H         1.02867348342790    0.47177797865373   -0.56055163001943
H         2.41214574469791    2.50764468647208   -0.81872892360763
H         4.68691982322217    2.42746978663319   -0.96474239736623
H         4.63845333987116    0.68647514432713   -1.03868344771048
H         5.42876173636589    2.64448668413021    1.11019831918156
H         6.11854975675217    1.06980572133196    0.90063588395723
H         4.82142516117305    1.09161813469980    2.96027756136278
H         2.87342239062252   -1.52385312030526    3.64594162925167
H         4.34534638219435   -0.55412023014583    4.12616156524137
H         4.34239650439563   -3.28016874883274    2.80617281878181
H         5.71854298359897   -2.39922617464207    3.53950593382059
H         4.89375787244018   -2.38095399810804    0.75857750701521
H         6.05093234444589   -1.16854212411376    1.51677601149723
H         1.81090959151587   -0.18635009549108    1.48363066984415
H         2.37563354478910   -1.85716841099778    1.36483995401304
H         2.57554532069156   -2.93704957945652   -0.40125693523463
H         2.57571633982716   -2.04622517646216   -2.03121911966821
H         1.18536328115717   -2.05818315275720   -0.90222482200603
