37
 energy: -49.575610692637 gnorm: 0.128143166125 xtb: 6.4.1 (79825abcba525fcdf90b791dcacef51065a7a4e7)
C         2.79854393803048    0.48519523518855   -2.38792665056457
C         2.28995607402883    0.40693574959665   -0.94157665949009
C         2.72310640025897    1.73386457609218   -0.25574669693083
C         4.23424935598976    2.04731158048216   -0.26467894152376
C         5.04559053566476    1.07440927974396    0.60801184233681
C         4.27658618711633    0.82898573062320    1.89833076400569
O         3.22405366066130    1.82429367928262    2.11810491676165
C         2.24138220574507    1.95892034460323    1.15238150570327
O         1.11793773443510    2.35651267029268    1.46273454353766
C         3.63944783442249   -0.61656656256605    1.91647543989715
C         3.76539315349755   -1.31126527078919    3.41251561377508
C         5.15476681514688   -1.79697661781267    2.97695847431355
C         4.77444981064220   -1.72820634493157    1.52943748177176
C         2.30404448448598   -0.86737921918999    1.12744913155144
N         2.66338492379201   -0.83882391761851   -0.28314205655357
C         2.14838197341758   -1.99145829549304   -1.01782321742810
H         2.93482759431470    1.48165193232189   -2.81979551486491
H         2.07178162839132   -0.03123059791286   -3.02993472638930
H         3.73114590778494   -0.07649346543786   -2.48218104720467
H         1.20157350787721    0.45702619259042   -1.03842258354100
H         2.21122167644051    2.48532547494731   -0.87235337745274
H         4.24196724832604    3.10342646944896    0.04398949421907
H         4.61322702241857    1.98637676403054   -1.28636693387364
H         6.11085209620445    1.27825596125018    0.79787913748996
H         5.06523047097284    0.17287933506522   -0.01042011653583
H         4.82611220901306    1.01308713570132    2.82859068896385
H         3.05956408051043   -2.10815905210449    3.66168313115426
H         3.76621120207651   -0.67467696695175    4.30830031093588
H         5.32880018541467   -2.84538015156428    3.22707820570327
H         5.99417989613617   -1.16207647858961    3.27926941365658
H         4.25078259287311   -2.64743782381173    1.18448939915867
H         5.53361375896098   -1.51281069796678    0.77788430671118
H         1.45431297610397   -0.21441226575122    1.37327449909061
H         2.04213381280807   -1.84603638799323    1.54328910262204
H         2.41503838117629   -2.82165063478920   -0.34971872824450
H         2.60455122157334   -2.00459128554881   -2.01266985794393
H         1.06046145820177   -2.06318018126253   -1.07636904024769
