37
 energy: -49.576327730399 gnorm: 0.165269576463 xtb: 6.4.1 (79825abcba525fcdf90b791dcacef51065a7a4e7)
C         2.41979520371560    0.44686681702406   -2.36740496159146
C         2.12741812035791    0.34042791310693   -0.86410828652265
C         2.58306200562475    1.70164070456685   -0.26560141287083
C         4.04621989443968    2.13707860267702   -0.49241560539187
C         5.01128952133914    1.39772109806385    0.45013078434137
C         4.33231638401160    0.96615513979539    1.74213295857993
O         3.14238914885899    1.72181248240891    2.14190598374151
C         2.20070287772543    1.98589086338885    1.16217192367327
O         1.11138565542604    2.39437236461169    1.56597511559172
C         3.95118428827358   -0.55907179518025    1.89807226186992
C         3.79521092450466   -1.12010032290909    3.44646628038733
C         4.59997204518291   -2.34760539901411    2.99749464029402
C         5.07700754042223   -1.73118949128420    1.71798068453964
C         2.65519306506675   -0.91840727105549    1.08563370548881
N         2.89018024255014   -0.78825567384039   -0.34529259204172
C         2.56686618187570   -2.10225813778128   -0.89521623726466
H         1.90930156509391    1.34664164211491   -2.72491219880144
H         2.02526578268497   -0.38139614834449   -2.97187205316516
H         3.50087242049221    0.54100268709213   -2.49599352394121
H         1.04402717468822    0.21494473099773   -0.78054494416750
H         1.91240508311354    2.38938691839250   -0.79865647941903
H         4.07520054235999    3.20021884238654   -0.21026779731300
H         4.40092421988608    1.99744027462913   -1.51509319496978
H         5.95986077459746    1.91987647238926    0.65000973774926
H         5.18761428944840    0.45127856133830   -0.06828619022160
H         5.00987067018488    1.23739296142380    2.55981623835535
H         2.73316042236837   -1.22236628200748    3.68502286274718
H         4.24525199909660   -0.47151550951622    4.21097680292266
H         3.96125634659079   -3.22947655656999    2.91785180664716
H         5.34869938312826   -2.67530882875106    3.72627598412215
H         4.74010606472847   -2.27764511302629    0.80908756804337
H         6.07114527943311   -1.33894560596768    1.50492610711323
H         1.85270493108862   -0.36018259046606    1.58886090255301
H         2.47074629295466   -1.97175065551462    1.32172064832592
H         3.40912666069165   -2.68783891154904   -0.50230274261562
H         2.74610873396312   -2.04377731202259   -1.97337893418029
H         1.56169160677175   -2.50674765670120   -0.76047575699696
