37
 energy: -49.582719269338 gnorm: 0.144991644731 xtb: 6.4.1 (79825abcba525fcdf90b791dcacef51065a7a4e7)
C         2.16958555332063    0.64712000354761   -2.45404122945566
C         2.04716798092327    0.53488870511001   -0.92789164422680
C         2.68226701899901    1.79974412745063   -0.28328936396731
C         4.20646739883627    1.93063297651926   -0.48715989288158
C         4.93232830988899    0.88338520849149    0.37469895191617
C         4.33201639260941    0.67672828611595    1.75797110904152
O         3.30057140469482    1.64128676994722    2.14849831625204
C         2.35893401238076    1.94324280181864    1.17972030328754
O         1.28315725355050    2.42103881956732    1.54157872100487
C         3.74981507371326   -0.78637568890689    1.88550292795380
C         3.56260775766404   -1.21009651791437    3.47358945728632
C         4.90223910822097   -1.94652192477524    3.33556709401153
C         5.00538489342208   -1.83312832486497    1.84520128638634
C         2.41425814804586   -0.85906454914586    1.06101783217370
N         2.76767806940344   -0.57874883408910   -0.32326029531402
C         2.80739608796323   -1.80859468833673   -1.11031310305859
H         1.59612318309745    1.52035671564801   -2.78055074795164
H         1.70010025445956   -0.24968684027336   -2.88109451600368
H         3.18825346728099    0.61105087048430   -2.84791839457620
H         0.97993838272688    0.55263689263345   -0.68878749137756
H         2.15877363373941    2.65215355447669   -0.73746566322065
H         4.45539208751766    2.96896385112842   -0.22141579268047
H         4.33470170575565    1.67284665035095   -1.53991136616467
H         5.98341260186094    1.18558922052618    0.50229132586457
H         4.91749624916988   -0.10096573728165   -0.10115111315250
H         5.12274655172500    0.77909089723506    2.50998402641429
H         2.69356808284961   -1.87083440682445    3.53287120532306
H         3.48849166323159   -0.45709136527558    4.27056223686307
H         4.84463455896341   -2.97888717164718    3.68613973636030
H         5.71438993788144   -1.38800598540441    3.81261571657089
H         4.65190225025913   -2.79378489684378    1.40886194892219
H         5.88692902667299   -1.31741817145651    1.46509558312961
H         1.72814811242324   -0.13060555785876    1.51647378740402
H         2.01021831079251   -1.86327061581123    1.22718618963874
H         3.52736719773084   -2.49166790610200   -0.63941911556143
H         3.05495225015723   -1.75016326700300   -2.17487142039538
H         1.82483369421899   -2.26110150555433   -1.25847320735924
