37
 energy: -49.571301376146 gnorm: 0.141159712369 xtb: 6.4.1 (79825abcba525fcdf90b791dcacef51065a7a4e7)
C         2.01734951386624    0.53760923932490   -2.38245417240591
C         2.07466800982107    0.40296753282301   -0.85428510421658
C         2.87307153931982    1.60597455174493   -0.27631619880984
C         4.38444802469688    1.30806500080549   -0.37051223240117
C         5.17926701608588    1.56680572002024    0.92088957614371
C         4.27570645101159    1.06918183796167    2.04002857844191
O         3.12398554262405    1.96741884703409    2.15609981005070
C         2.29675117128201    2.03010128101409    1.04788346246449
O         1.15608524721151    2.44559517289332    1.25469800841972
C         3.88919940817599   -0.45502299909590    1.88735958310355
C         3.76680176930155   -1.27367922581525    3.31963941350246
C         4.85634076508176   -2.27239769209191    2.90557311153951
C         5.16908651979529   -1.45348631154116    1.69055803404993
C         2.73757232484758   -0.99247609702276    0.96341650750632
N         2.74918164842078   -0.83508257950818   -0.48392621365698
C         2.09004397318665   -1.99467761757415   -1.07926422395499
H         1.44345049114852    1.44249750777638   -2.60567390647332
H         1.53115006242032   -0.35354583237171   -2.80258058676727
H         3.03526242387645    0.55998654889949   -2.77928800983026
H         1.04854878228481    0.41116041865007   -0.47550149446776
H         2.62198678881530    2.53989871839359   -0.79753148732616
H         4.76912666193959    1.95419195192430   -1.17379097871873
H         4.37495442056281    0.23057929379782   -0.54405737774066
H         5.32055384496126    2.63014812145604    1.16933722641632
H         6.17806275953529    1.12229591433505    0.94133815493328
H         4.89828349223070    1.08156770253109    2.94197099486988
H         2.83042543800225   -1.73567573855600    3.64379587767454
H         4.21383658901907   -0.64665419983001    4.10365156375166
H         4.38683347729976   -3.17784781476226    2.51606002537715
H         5.61675459800227   -2.43413305049645    3.67675200498249
H         5.15220232365195   -2.04941279316617    0.75098920184661
H         6.04727091750678   -0.81806532086567    1.80276182728231
H         1.83824327990605   -0.50069754194716    1.36116105209857
H         2.69267264830203   -2.05399936756352    1.22882618482161
H         2.44125319944978   -2.82914793911504   -0.45717103773615
H         2.37804398259619   -2.00238183569917   -2.13519004565078
H         1.00211502158232   -1.90796500883390   -1.11142344536841
