37
 energy: -49.578569760940 gnorm: 0.145397140430 xtb: 6.4.1 (79825abcba525fcdf90b791dcacef51065a7a4e7)
C         2.14019419484814    0.48932811630623   -2.29822172569225
C         2.12545176914571    0.34679251722385   -0.76976473929199
C         2.88903118310089    1.61796017344144   -0.30093492084865
C         4.42189221495718    1.44521780649783   -0.34970977342829
C         5.04003259939348    1.61713557437594    1.04841373895870
C         4.11911066960421    1.01187979634414    2.09821922233527
O         2.86821435387249    1.77006272367420    2.18295622322932
C         2.27892867542713    2.12000804281495    0.98018030812941
O         1.26893236061722    2.82365511870849    0.94392561676127
C         3.82701429218440   -0.53350870790429    1.94872009165999
C         3.90734595123679   -1.43909342450232    3.33077213843265
C         4.88613686903258   -2.41369178393772    2.66136114433504
C         5.08652607212609   -1.47860386302605    1.50804326144773
C         2.49558307956413   -0.87763515245180    1.18869408835080
N         2.74149849986044   -0.86619357693708   -0.24626346083477
C         2.31656412065247   -2.08373321921440   -0.93225067536078
H         1.91584553854735    1.51397545259310   -2.61091235583892
H         1.45887776739312   -0.17210158997085   -2.85082659209961
H         3.04304738724636    0.29722805536906   -2.88309624574003
H         1.07902210677049    0.53977377281531   -0.51637174044657
H         2.77760251779108    2.40247741051357   -1.06188145053723
H         4.86443646555490    2.21794581881940   -0.99605366833594
H         4.67956818142552    0.41486748899282   -0.60103585496881
H         5.08681642069179    2.71086353787686    1.16654789514176
H         6.05799021147316    1.21912556190932    1.07924190587828
H         4.54224414039611    1.16038603893555    3.09829905135723
H         2.91530052161440   -1.75553466832707    3.66398323708366
H         4.41549380165910   -0.82807545676147    4.08979675699206
H         4.37871217767643   -3.28134996002291    2.23511364146242
H         5.69732721399861   -2.64057838783163    3.36107330074477
H         5.05279096078047   -1.92420934439717    0.48897470165775
H         6.04645494955852   -0.96294291059306    1.49434330790732
H         1.72947444700473   -0.12699194349036    1.43046244859288
H         2.11218698230212   -1.86853592217004    1.45404862190064
H         2.93104845204534   -2.93719922843650   -0.61492852941177
H         2.59656695649366   -2.00655572079484   -1.98753487601576
H         1.26849263235637   -2.35219847808248   -0.78522941062207
