37
 energy: -49.574483669327 gnorm: 0.139938538212 xtb: 6.4.1 (79825abcba525fcdf90b791dcacef51065a7a4e7)
C         2.20810532857954    0.60253688096058   -2.38896895633607
C         2.05643874344938    0.42384362421615   -0.87180698226158
C         2.92495116684423    1.56896809114857   -0.27758628027909
C         4.45298460384244    1.35862759426874   -0.33005087416619
C         5.10166894323045    1.42384761111416    1.06327521060648
C         4.10224998037462    0.89923668943115    2.08428864301423
O         2.93722426578192    1.77786161562229    2.21656343690246
C         2.30711226515109    2.03902687715017    1.01193037188172
O         1.28812627546948    2.73004391073178    0.98567802885077
C         3.77169730952268   -0.63623287171128    1.91410033012901
C         3.86812905761384   -1.48396104880855    3.33137326253522
C         5.26304352149641   -1.94795372241698    2.88988810587126
C         5.08893640451212   -1.49804290057977    1.47145433632886
C         2.45738967909255   -0.94659119393326    1.11095355188019
N         2.54529077416743   -0.84167256761910   -0.33852012027942
C         2.01150448721479   -1.98352845964003   -1.07661752617879
H         2.15652279856976    1.68338915402856   -2.55361257397722
H         1.58172647420388   -0.07478775704969   -2.98557128106979
H         3.23924098084752    0.29660529022139   -2.58207426390755
H         1.04486091560303    0.55502124993610   -0.47687972776122
H         2.71721692292653    2.45202900356229   -0.89724197734514
H         4.83812870009391    2.08534003634160   -1.06098689889898
H         4.64543591082705    0.32445128553962   -0.62095522135279
H         5.32315224487966    2.47785092732042    1.29220187217058
H         6.04451433672412    0.87996508873427    1.16736369237251
H         4.55782195384260    1.02651257941797    3.07298006582493
H         3.09385282767984   -2.25397460555563    3.27757476604005
H         3.77678089796657   -0.82755980622329    4.20799660544470
H         5.44630638053237   -3.00483537788914    3.09339081506454
H         5.95274766428193   -1.35387983231322    3.49856603365270
H         4.93945699435743   -2.42048912987719    0.86734185359961
H         5.85267049286057   -0.94908021603876    0.92108394717762
H         1.63909329011823   -0.26792016592522    1.39137511081376
H         2.34859975708210   -2.00885721700926    1.35394651954391
H         2.28360253967447   -2.87580178706357   -0.49653173504698
H         2.33554473883847   -1.96919249958828   -2.12197636007353
H         0.92486148122360   -1.89020259049664   -1.12799800431214
