37
 energy: -49.580609004486 gnorm: 0.152474983050 xtb: 6.4.1 (79825abcba525fcdf90b791dcacef51065a7a4e7)
C         2.23132015960364    0.39955241374420   -2.40204543431201
C         2.15037241154974    0.41901922743802   -0.86914524521666
C         2.94007036614010    1.62587933703132   -0.28726214536289
C         4.46536789715345    1.43112763804906   -0.41925102603132
C         5.08691557773781    1.63862542302544    0.97251970170779
C         4.22019306424319    1.02135104626453    2.06076955610575
O         2.98860591689867    1.80719398501768    2.17215759298879
C         2.24415748967343    1.93218752088775    1.01174283325860
O         1.16168145520139    2.50627957214046    1.13499106252074
C         3.84448578038043   -0.50870969803460    1.94391887123537
C         3.94850132362284   -1.35252297348489    3.36299062598586
C         4.85971843504857   -2.34436664064947    2.62684239223824
C         5.06616868877409   -1.46658353042307    1.43036318100045
C         2.47523973868656   -0.78191141691616    1.22329573155613
N         2.61592373441524   -0.80330841929877   -0.22565514445989
C         2.12771353440880   -2.02559135980191   -0.85907891862929
H         2.42286944093928    1.44250036735189   -2.67329873291490
H         1.28259087085466   -0.02160367872795   -2.76203676008430
H         3.04947348244109   -0.17896279824515   -2.83801540228010
H         1.08208808995851    0.57143086189219   -0.69024831863175
H         2.68472642159706    2.43300058375849   -0.98746070991664
H         4.82074965473393    2.27448885260809   -1.03011933829576
H         4.74908508403889    0.41127846146913   -0.68494952937386
H         5.15898984071227    2.70816898032476    1.22404931121536
H         6.11319921518522    1.26164576227723    0.95741082779889
H         4.68402308385004    1.18660935541114    3.03995651931022
H         2.96043860851199   -1.74290415961184    3.62116389420655
H         4.38538314861113   -0.67226876836143    4.10734541803881
H         4.36130664179879   -3.30719222015502    2.49819539000887
H         5.82243493623904   -2.55340120165636    3.10494897288269
H         4.86750562899885   -1.95967702526794    0.45281787170656
H         5.99662171420486   -0.90091002235064    1.38760793008977
H         1.68393969188550   -0.15088766445154    1.65282204694218
H         2.22134997566084   -1.81491874227693    1.48353752567836
H         2.83056204658691   -2.75388901080699   -0.43214207181758
H         2.42201157750684   -2.03418882732121   -1.91325985347304
H         1.05753450454399   -2.17566644111603   -0.70307569271858
