37
 energy: -49.572358496526 gnorm: 0.151078808030 xtb: 6.4.1 (79825abcba525fcdf90b791dcacef51065a7a4e7)
C         1.10865782724826    0.55815075230898   -1.56065911498152
C         2.02506143198759    0.31781029100866   -0.35270407812783
C         2.76598697771586    1.66502353533561   -0.11867860749696
C         4.18691129505610    1.61601735492601   -0.71905710358805
C         5.26002913386882    0.92513258816041    0.13972047754154
C         4.67373903059262    0.59942888498138    1.50599435406195
O         3.88676596002016    1.66708867642663    2.12852087419292
C         2.77773765162663    1.96641352248796    1.35596012317455
O         1.83714935443006    2.53389325065167    1.91254488580185
C         3.89555913341573   -0.75457461948785    1.74475461461377
C         2.70699104023450   -0.75398195435683    2.89536759616430
C         3.60185201192565   -1.71077238458483    3.69521796821528
C         4.72020882609413   -1.79289864235313    2.70162815620291
C         3.50052822191175   -1.57895858974885    0.46682142542675
N         2.98487695291885   -0.74823677324303   -0.61193408675513
C         3.23942419475498   -1.30336417078444   -1.93880623617361
H         0.47044167386095    1.41864075193022   -1.33650065866687
H         0.46328837513993   -0.31251885987160   -1.74089829639646
H         1.47909295137979    0.85887625047540   -2.54374940159071
H         1.32644185064843    0.14429155776970    0.47087756670441
H         2.20195019683101    2.48070630739366   -0.59138081890699
H         4.53480192209395    2.65735538091910   -0.79186959953538
H         4.12319156106440    1.19093688955467   -1.72226688852687
H         6.15050469537908    1.57276652701374    0.14268823670303
H         5.63256927288430    0.00033190325503   -0.30923116586704
H         5.53801860344174    0.60070600922550    2.17999353273329
H         1.81045584527190   -1.18548450858045    2.44221307233216
H         2.44655256625698    0.23952471397221    3.28625359107251
H         3.03321226331776   -2.62408547653339    3.88097451818972
H         3.94661231663347   -1.35482884779215    4.67171627474123
H         4.84171966390842   -2.78143443776380    2.20540729751120
H         5.67506250373579   -1.32721272839707    2.94442117621667
H         2.74016848669170   -2.28513013828302    0.83015929476109
H         4.35066757858315   -2.11259564617291    0.02888936930853
H         2.48575798634695   -2.03636235273495   -2.25722336154364
H         4.26585401275305   -1.68212759629381   -1.96983502257508
H         3.15011434737099   -0.47807529990867   -2.64807679025798
