37
 energy: -49.576575224815 gnorm: 0.155786959569 xtb: 6.4.1 (79825abcba525fcdf90b791dcacef51065a7a4e7)
C         1.70242740247554    0.44831712173667   -2.26241045444278
C         1.99820872774297    0.44681310987029   -0.75601554723987
C         2.57815354475529    1.81867016529060   -0.30836129350135
C         4.08646653146803    2.01085530304484   -0.57282048426741
C         5.00142752230091    1.03947972860483    0.19247583907033
C         4.54860369885668    0.76425903854132    1.61926504858959
O         3.48159744609610    1.68692489735423    2.01543253300364
C         2.41015833248817    1.95581341841721    1.18110260481592
O         1.48425810889344    2.58619990120034    1.69281329180789
C         3.93127503447334   -0.65864089918250    1.91952658448420
C         3.44180469672067   -0.99464066810693    3.46358864658677
C         4.16766763695520   -2.33772592129829    3.30475005253049
C         4.92273172201221   -1.95019625959978    2.07008961967358
C         2.72467858574133   -1.01511093760634    0.97834343432154
N         2.95584246671445   -0.59129049505624   -0.39520960059760
C         3.22152417646274   -1.72910171888273   -1.27176495711975
H         1.04019550124972    1.31761323037555   -2.32391736708934
H         1.17274147249751   -0.46744579149319   -2.55883003370729
H         2.55985139622946    0.67321172095115   -2.90144960354511
H         1.02490070597843    0.35482801552620   -0.26542912343185
H         2.08930743771131    2.61139418341233   -0.89106306916749
H         4.37895187577325    2.98039832168180   -0.14252629410133
H         4.27963294820647    1.95697687310210   -1.64565193614896
H         6.03057321691408    1.41176309474772    0.31351091406723
H         4.94228028914824    0.07250631586031   -0.31453902492304
H         5.29975138979767    0.99707619685048    2.38269743132268
H         2.35400316975890   -1.01942550515334    3.57032373934629
H         3.91705236942894   -0.29719421815440    4.16742361474566
H         3.57022344349532   -3.23237921514740    3.11859586449151
H         4.80724941885923   -2.58946929475352    4.15719643134963
H         5.06879465115773   -2.63962432377770    1.20895223546921
H         5.88739151582395   -1.56487974232522    2.39951339780315
H         1.89216725340876   -0.51746056597835    1.49613546834555
H         2.52251522501466   -2.07587710577752    1.16053848627544
H         3.91890485165133   -2.32932368199531   -0.67169633142902
H         3.84828397989948   -1.33284071853461   -2.07683145332676
H         2.37744844820762   -2.29991962516954   -1.66399673401124
