37
 energy: -49.578868182872 gnorm: 0.129527305917 xtb: 6.4.1 (79825abcba525fcdf90b791dcacef51065a7a4e7)
C         2.08593474568613    0.50433435526974   -2.42480765114044
C         2.07570845257527    0.45306896310052   -0.89053852136261
C         2.79120374925766    1.70485549813317   -0.30759850558217
C         4.32463462791283    1.60149115768064   -0.44826611588242
C         5.12072371236003    1.53799990249882    0.86650139237290
C         4.30930397632443    0.98981886142448    2.03167041098569
O         3.11348085529646    1.82612495060770    2.16343720145545
C         2.26072044497095    1.94826436200440    1.07979939893255
O         1.09641733844949    2.28268892561052    1.30134996872552
C         3.86284255141393   -0.52106498990065    1.91420525422497
C         3.77747545343927   -1.27556469481915    3.38391521078153
C         4.75433223562219   -2.36992157329960    2.93212040453260
C         5.04615430613734   -1.62218113073271    1.66704669258187
C         2.56862956594054   -0.79090110801879    1.06510409041752
N         2.74959022348797   -0.73373182351568   -0.37839629100431
C         2.50290106425404   -1.97314619520203   -1.11088992474330
H         2.10662560417243    1.48765952534581   -2.90507154202782
H         1.21250321772627   -0.06133659454113   -2.77720971130381
H         3.02371961031597    0.03911309161965   -2.73826139680058
H         1.03299028045634    0.55804632788615   -0.57719626196974
H         2.28183679565035    2.51297247009434   -0.85019920551207
H         4.73838347894219    2.47205442982793   -0.97896932230382
H         4.54857216232541    0.68614911084661   -0.99888793830318
H         5.53143329761688    2.50279997907349    1.20245331485717
H         6.01315582696508    0.91857869605058    0.74207338159163
H         4.80504404613878    1.23570831220721    2.97773375377192
H         2.75238029077562   -1.45750783282387    3.71767475012294
H         4.16365922826649   -0.66858044655230    4.21464246636920
H         4.08570271796132   -3.23033749064451    2.86417574776561
H         5.64913169749942   -2.55070957613080    3.53689641920222
H         5.10775273108191   -2.26805984616333    0.76302825255438
H         6.05221594864948   -1.20926268468929    1.73701582383886
H         1.78413093176560   -0.16509886224218    1.51429562174578
H         2.21341391332602   -1.79366518854677    1.32505785409670
H         3.05919160864765   -2.83342355617425   -0.71446558757536
H         2.87124073259621   -1.89029911616816   -2.13823842643009
H         1.45676935451628   -2.28469785331060   -1.08468498770620
