37
 energy: -49.582136472888 gnorm: 0.150278518675 xtb: 6.4.1 (79825abcba525fcdf90b791dcacef51065a7a4e7)
C         2.18279645804377    0.47786997970065   -2.43820416690093
C         2.09373726424533    0.47498780464749   -0.90563291892117
C         2.92865938591911    1.64653716718287   -0.31478670748301
C         4.44952607198922    1.38553816023294   -0.34172885541580
C         5.08194233629896    1.52170423487239    1.05394698843801
C         4.18180670871045    0.85774580069771    2.08614772128556
O         2.99272855694094    1.70568461988334    2.20386013476560
C         2.36329148921760    2.05100298517592    1.02024134115248
O         1.34015929472895    2.70994316114085    1.20872083890700
C         3.77683901080745   -0.65419817147439    1.87185239477924
C         3.80865746694214   -1.38962712834762    3.35331672207997
C         5.13158984241878   -2.04247446872840    2.92949484299532
C         5.06267350602756   -1.59405001562484    1.50161058928901
C         2.43934210279324   -0.93245955363468    1.09567960085395
N         2.59665915759644   -0.77208789432633   -0.34280596546478
C         2.10005166323684   -1.94476920891415   -1.05817299918321
H         1.79490410151901    1.44242513885436   -2.78052386617119
H         1.53359171872890   -0.32987926812348   -2.80307103113628
H         3.16526427971808    0.31032246577464   -2.88632170790768
H         1.05091414782324    0.65502129775531   -0.62891521157371
H         2.70663059255190    2.54528760484799   -0.90628828884702
H         4.82593600095878    2.08881854316626   -1.09963827712835
H         4.53461761395398    0.31375358717455   -0.52940075084711
H         5.17042958161418    2.59097572469006    1.30136109771145
H         6.11904704135000    1.18881310741149    1.14984989701551
H         4.67469216134603    0.94018523119307    3.06160831477013
H         2.99580040871045   -2.11928768811295    3.39998260794014
H         3.75593027590785   -0.63647922140910    4.15185516197510
H         5.37092934839886   -3.07272242202447    3.20024051055302
H         5.92516556270106   -1.46085446306160    3.41018201418398
H         4.73073114387895   -2.39081065523193    0.79933586549144
H         5.86786701014147   -1.04831965124776    1.01028671867016
H         1.54763287616739   -0.38465759943732    1.43273635909353
H         2.37974635210000   -2.01153622214487    1.27268758667594
H         2.63959091163415   -2.81380532329256   -0.65772050757158
H         2.36898628973896   -1.90861951171841   -2.11852674370261
H         1.01365246039036   -2.00280607496655   -1.15042908228963
