37
 energy: -49.580061832650 gnorm: 0.140032552106 xtb: 6.4.1 (79825abcba525fcdf90b791dcacef51065a7a4e7)
C         1.90970841411548    0.49863940031655   -2.42047817942834
C         2.05826222164549    0.36814117922062   -0.89810620646618
C         2.54919523185376    1.69780777937167   -0.25803310904547
C         4.04172549430591    2.04551563770152   -0.44061045972314
C         5.05858843660615    1.16905488972978    0.31052794187289
C         4.47017341685925    0.86950948356210    1.68186437466266
O         3.37154582366267    1.73439651413644    2.11975835973906
C         2.32269618324722    1.84337262478342    1.22285932702047
O         1.23970922266805    2.26242478106738    1.63281139276155
C         3.89865658665844   -0.58510525370852    1.91286307511936
C         3.63239024502094   -0.99086785186375    3.49433822974231
C         4.53496144966500   -2.21507621297658    3.28778602162533
C         5.10413910072123   -1.68589659740606    2.00689057954506
C         2.68191417462155   -0.97276634731289    0.99742418484317
N         2.89446913084860   -0.72672109252184   -0.42172716790567
C         2.92328776029097   -1.95814542701223   -1.20678387377031
H         1.68241493027993    1.54263718717518   -2.65799911905234
H         0.98388002503711   -0.03412090012006   -2.67750292825827
H         2.78446600911104    0.20275597773844   -3.00475265522550
H         1.02122828639872    0.23630286831368   -0.57616822141905
H         1.91338139719572    2.47881445508976   -0.69700075036108
H         4.19187984278681    3.06737903074635   -0.06118549521284
H         4.34948709596443    2.16580644005934   -1.48080101186510
H         6.04183368788703    1.65832569076810    0.38944628635902
H         5.11818064943188    0.25953057628514   -0.29347068302080
H         5.19337989170620    0.85018459701577    2.50518366009477
H         2.59787633635824   -1.28507828527632    3.69065436657280
H         3.90314797790706   -0.15735297681024    4.15737576111911
H         3.95114161033790   -3.12932961522028    3.16412287116538
H         5.31092239280261   -2.34272109957941    4.04982001621126
H         5.10339850006924   -2.43823251030446    1.18701671007124
H         6.02049700889790   -1.14670899305895    2.24589324097499
H         1.86101942097809   -0.32626465396936    1.33948698561095
H         2.30157494616201   -1.99604771314931    1.08418379900703
H         3.79671166572206   -2.50878474075437   -0.83179642226173
H         3.08541274036050   -1.75055137913442   -2.26914110779605
H         2.05072231960196   -2.61415029302178   -1.22751667967991
