37
 energy: -49.585332207605 gnorm: 0.144677299073 xtb: 6.4.1 (79825abcba525fcdf90b791dcacef51065a7a4e7)
C         1.99508922936303    0.50624116399643   -2.34646671999812
C         2.00104074906067    0.42362808002802   -0.81354332076775
C         2.66469523012149    1.70656654183477   -0.23704204012394
C         4.17654869534509    1.90153949955743   -0.47821933743163
C         5.11336162600952    1.07282556772483    0.41733487532760
C         4.46711344238252    0.85254112662767    1.77761476278776
O         3.37547599305920    1.76666999479072    2.12324375893880
C         2.37666783613698    2.03557515730988    1.20321033122673
O         1.29913825105047    2.49806594525171    1.57945282586425
C         3.83800203032140   -0.59416421213746    1.86222243488015
C         3.58120020804001   -1.02635505676753    3.43825182757976
C         4.51160998512904   -2.22780297026501    3.22181415981527
C         4.98541623093499   -1.75902263923224    1.88000938909083
C         2.57739961676968   -0.94676475630118    0.99312747356784
N         2.90144531735825   -0.64297409833752   -0.39338401491555
C         2.79759174445206   -1.87519159575838   -1.17081886753220
H         1.46724204530348    1.44689924717841   -2.53234204527618
H         1.38765765369569   -0.31186010597956   -2.75730812877216
H         2.94046755620333    0.49185511891158   -2.89435118287010
H         0.96038028540688    0.24313017375021   -0.52909454461435
H         2.18752996342883    2.46734874450044   -0.86985086149633
H         4.37239451268352    2.97943945284479   -0.37579603070824
H         4.38395177709887    1.66976716640177   -1.52437851440791
H         6.11493121860098    1.52101874682909    0.50880334440073
H         5.18629343218459    0.10814271375757   -0.09224141698033
H         5.15625433157373    0.99975999450374    2.61705930663089
H         2.53506878679260   -1.22585783107715    3.68548962987980
H         4.02485977720014   -0.26653634324625    4.09667212044413
H         4.03178539015202   -3.20756565618958    3.17902513162292
H         5.31608946142955   -2.33653184219099    3.95672586646966
H         4.81988820249809   -2.59480601152559    1.16427922382785
H         6.03432474240602   -1.46384448155787    1.86523939372604
H         1.70383750006887   -0.39852877409416    1.37413422676634
H         2.34258814868558   -1.99983436980158    1.18073851615312
H         3.35028588168091   -2.72481862733221   -0.74731955600057
H         3.19565632993482   -1.73257945032202   -2.18036780673099
H         1.77336859969600   -2.25333645543051   -1.16004337873232
