37
 energy: -49.569599569435 gnorm: 0.138069150618 xtb: 6.4.1 (79825abcba525fcdf90b791dcacef51065a7a4e7)
C         1.70321939803743    0.46854091289229   -2.32099415836409
C         1.94675941549346    0.49318638715376   -0.80547598864858
C         2.60943437607292    1.77754568634411   -0.23101522148657
C         4.11143621073553    1.92912879394237   -0.55178754531601
C         5.11554638478208    1.17628556807512    0.33781484430522
C         4.47717299189202    0.83956784029064    1.67782375312356
O         3.34720074626958    1.63762079380702    2.16056334038494
C         2.37894518413116    1.99951288621933    1.23974602913039
O         1.26729995923721    2.39386169496267    1.59366704170522
C         3.99657017981031   -0.65737172026168    1.83302942639530
C         3.60461569559842   -0.94274419888185    3.41465484146273
C         4.38819335760280   -2.26212070333871    3.37949250601464
C         5.11509265905669   -1.80696202682091    2.15102379425453
C         2.80929152950728   -1.03552172851774    0.87587554282249
N         2.84343100700491   -0.61984067531807   -0.51902667292726
C         2.91992585897283   -1.85361679059608   -1.29716257122664
H         0.88104672755032   -0.22848233785014   -2.51125870052186
H         2.56272397287612    0.07666116182249   -2.88200717915779
H         1.42926814430363    1.43206978530128   -2.75767177605685
H         1.00201794205781    0.58566503305364   -0.26199089290110
H         1.98994419834033    2.58235057114813   -0.64987590816673
H         4.40524951666929    2.98707304828211   -0.62349607237617
H         4.24476864005199    1.58338993177140   -1.57836953464546
H         6.05491859066447    1.69123007656061    0.59236790347711
H         5.47826074847559    0.25049198523368   -0.11709676453436
H         5.24102565052228    1.11016472715339    2.41576829239278
H         2.51905503548738   -1.00366006330970    3.52939866581578
H         3.99205070879345   -0.17032115824530    4.09357480915145
H         3.67867970145517   -3.07780200420862    3.22700693887880
H         5.04831714571003   -2.45348825561193    4.23197092423112
H         5.31717683011220   -2.51823342844224    1.31948425212949
H         6.08057941693116   -1.37534892206806    2.41389791612728
H         1.94705497814827   -0.55560856571940    1.36071684538436
H         2.60256271863016   -2.10492410888202    0.98959303877242
H         2.29333177955835   -2.68112884598855   -0.93759030253114
H         3.91792651918192   -2.27738941726269   -1.14751586506333
H         2.77084648626657   -1.75706925216413   -2.37447246074633
