37
 energy: -49.584099336162 gnorm: 0.152889884830 xtb: 6.4.1 (79825abcba525fcdf90b791dcacef51065a7a4e7)
C         1.91118897238673    0.49757918055066   -2.41172831289556
C         1.93841477867077    0.36605671573117   -0.88245558945211
C         2.48795431991362    1.71405647372581   -0.33507541684545
C         4.00563272670224    1.88084898284703   -0.56027396091414
C         4.96162836244076    1.05891084431696    0.32114117463389
C         4.38249969655825    0.86591167725572    1.71537380460924
O         3.33715533516593    1.82246662155052    2.08822916742022
C         2.32031071327954    1.88492105534081    1.15093747106924
O         1.28799623213174    2.35889973304677    1.62653941989623
C         3.86232323279707   -0.60748028197560    1.94867299707775
C         3.66282415326386   -1.09759238489696    3.51602584923909
C         4.72256438948700   -2.18556898272512    3.29411988600887
C         5.04292459083311   -1.73781276564004    1.90071717820235
C         2.56449483695902   -0.93036882206961    1.12395725676679
N         2.75196229756783   -0.69425592625394   -0.30040754562151
C         3.12993503484814   -1.86344161737858   -1.09014918951894
H         1.14967076423758    1.26956695705512   -2.56050601398795
H         1.60740348298844   -0.43627164030235   -2.90436457343783
H         2.83562181944027    0.88424692487737   -2.84766005662246
H         0.91997176943032    0.27829427317113   -0.49317883826689
H         1.96729122300330    2.54220638394431   -0.83507634197504
H         4.18965782622165    2.95367753068386   -0.39937616672383
H         4.29263474005367    1.76209056654071   -1.60655774816229
H         5.96199331166247    1.51896562521774    0.31894499170242
H         5.02513688970467    0.10241165478061   -0.20485884375243
H         5.14682552516437    1.06797491344473    2.47447338988973
H         2.64498517467783   -1.41647743070274    3.75609869939255
H         3.84447678257743   -0.17990840847638    4.09268347071360
H         4.27699132344855   -3.17795539598754    3.20121503145955
H         5.54947451072504   -2.09495250170442    4.00623835548082
H         4.95831410522394   -2.54066868167899    1.13490618461977
H         5.99205958672462   -1.23782796183747    1.70910476540268
H         1.81337539104564   -0.25732118123701    1.56175406895970
H         2.33180975677011   -1.98568707904031    1.30130143078073
H         2.34933555415465   -2.62316942311781   -1.23215857378043
H         4.00306290997485   -2.34793490974595   -0.64193422558476
H         3.42541973846623   -1.48557291091815   -2.07098899348256
