37
 energy: -49.572252244791 gnorm: 0.146613134592 xtb: 6.4.1 (79825abcba525fcdf90b791dcacef51065a7a4e7)
C         2.45492784482410    0.47508737298056   -2.43974130553036
C         2.18949238937655    0.56252619602158   -0.93023378696185
C         2.74148654975053    1.87075754461743   -0.29576133502317
C         4.27469842266202    2.02651053370305   -0.37873247486420
C         4.95302114771310    0.89548218302117    0.41313605071295
C         4.30669705899188    0.73197795847306    1.78136661562555
O         3.24535585198386    1.69882898802507    2.07379994466413
C         2.26259301718966    1.94125046204746    1.12944921389234
O         1.14002638963628    2.19875580910859    1.56540945609522
C         3.73917252792793   -0.73694389194523    1.90817541448335
C         3.75715042994883   -1.18514314332924    3.50046903128181
C         5.14255176806716   -1.80395240959378    3.26868695456422
C         4.89858469355434   -1.88419485422456    1.79263525672393
C         2.40752922747847   -0.92515981210036    1.09572694277240
N         2.69167444843570   -0.65554088366150   -0.30651254755900
C         2.26101957870411   -1.75819404301096   -1.16222445218991
H         2.29712577232862    1.48286405447016   -2.83659717141397
H         1.78499594612421   -0.19591921283303   -2.99471416703668
H         3.51281708691759    0.31114180753271   -2.65909655700079
H         1.11980171081564    0.49568725570991   -0.71169496608688
H         2.16677912908908    2.65278535634942   -0.81060804675221
H         4.67895616517222    2.99000055816742   -0.03380194466945
H         4.58314670953813    1.85962036071545   -1.41226564212983
H         6.04271505824391    0.98927925779042    0.54023659674307
H         4.74188139530292   -0.05872930809269   -0.07727244653394
H         4.90843323193282    1.02628727354673    2.64886377428593
H         2.98926460150280   -1.94895723780496    3.64966092475872
H         3.74438668583125   -0.35601279680115    4.22161778339766
H         5.27152295197043   -2.77989427670959    3.74081126967348
H         5.91252514174538   -1.09140305877549    3.58256406127247
H         4.42457336135626   -2.80617786923145    1.38832891151766
H         5.79139237002384   -1.67433575816818    1.20406837612635
H         1.60834063719977   -0.31222731856960    1.53669287906637
H         2.15096967036169   -1.93169840865209    1.44263785944096
H         2.55086178248939   -2.71922622203577   -0.71602134272546
H         2.76999180550508   -1.76242005854130   -2.13119922566188
H         1.21543109449741   -1.66838959801487   -1.46359229674071
