37
 energy: -49.572590861573 gnorm: 0.171686815044 xtb: 6.4.1 (79825abcba525fcdf90b791dcacef51065a7a4e7)
C         2.11676716610453    0.47270956094046   -2.41992440790757
C         2.05708713187715    0.45526495569170   -0.88602464905551
C         2.91974248833454    1.64704894254659   -0.38184333158724
C         4.42369494942476    1.30126973254505   -0.40295237068143
C         5.03613193797540    1.56085879476826    0.98410821138364
C         4.17141741476597    0.97274690551600    2.08996377009689
O         2.90149681722526    1.69411882234116    2.20695759259517
C         2.37074884267078    2.01714516477622    0.96988450436730
O         1.32281442692591    2.65549772383146    1.07412296228248
C         3.86038977181804   -0.56619177968009    1.91439196603614
C         3.91518540329795   -1.38816180630652    3.34895372022647
C         4.93707004506250   -2.32414418754688    2.68889806972778
C         5.22474963340998   -1.39148659672468    1.55220212496435
C         2.51164826079329   -0.81305605178771    1.14710716385597
N         2.65380771092637   -0.73860956532319   -0.29994393000851
C         2.10088999399844   -1.91527483088550   -0.96574519049126
H         1.87894512099537    1.45072721855679   -2.84996167020296
H         1.42563196302512   -0.25666555864003   -2.86421883217458
H         3.15302565767782    0.20323436115291   -2.63827272167040
H         1.04286233694006    0.54919300124149   -0.48728864738526
H         2.64039868390465    2.54919937292551   -0.94310521552608
H         4.89354694271283    1.97667163269565   -1.13355883453084
H         4.56888631391964    0.24259782465470   -0.62502609247223
H         5.05150576231667    2.64181436583844    1.19311529468925
H         6.03895830615933    1.14505243192480    1.11466238960123
H         4.58349637700307    1.10426398262724    3.09701386355931
H         2.96526034769315   -1.84734378742141    3.63550759980829
H         4.15932302693235   -0.84039364732486    4.26983505046954
H         4.76691943148214   -3.39429034776175    2.55535622190479
H         5.84072812600678   -2.30835427798892    3.30716756016116
H         5.13790578439253   -1.90280992780647    0.56771767413579
H         6.08674002567959   -0.73566080101716    1.67229563237936
H         1.70964192421234   -0.18576342597852    1.56199195867895
H         2.29262235366737   -1.86239743577834    1.37116127849107
H         2.35116500730065   -2.75403391795601   -0.30201770052864
H         2.67171429652101   -2.25172585523150   -1.83691854840788
H         1.01300773152509   -1.99390814675662   -1.01546114837718
