37
 energy: -49.572606166187 gnorm: 0.147669468825 xtb: 6.4.1 (79825abcba525fcdf90b791dcacef51065a7a4e7)
C         2.62118547322213    0.34968855491726   -2.38113075238069
C         2.14467153769126    0.39413552523076   -0.92247609305627
C         2.98867947258718    1.53383937609250   -0.28415969694005
C         4.53192442972928    1.53801516844748   -0.26805443623430
C         5.11665220920903    1.64517244397815    1.15075256891749
C         4.16794714380400    0.94510826145645    2.11324522640209
O         2.94715744428574    1.74618309676618    2.23455025863306
C         2.32261891784817    1.91498729296797    1.01068506530665
O         1.19801226545638    2.41409121923517    0.95890362019621
C         3.81672826208830   -0.57602252047176    1.87095966317738
C         3.97619685303163   -1.44690122455694    3.26836609399256
C         5.25833593367234   -2.03926144092047    2.66735573153183
C         5.11398783729457   -1.40389370369370    1.31822309918590
C         2.44444631361595   -0.88083386574506    1.16903101925239
N         2.40590100015500   -0.89116494326653   -0.28634382558206
C         1.46409488196585   -1.88405780970577   -0.79694684144986
H         2.49417167797854    1.28989739300292   -2.92691893918554
H         2.27844572106665   -0.44512495769423   -3.05778014813917
H         3.67755458776249    0.08204232095052   -2.30004858998631
H         1.11596411432462    0.75591109858065   -0.83677739688479
H         2.75693138579608    2.43708948813281   -0.86498266768917
H         4.88362029300968    2.39581335561460   -0.86068139028660
H         4.77245599937727    0.59654179952748   -0.76500104385981
H         5.12793974523346    2.73248380813676    1.32399181707668
H         6.14791692736130    1.30047082537540    1.26596500636060
H         4.62184680789402    1.03011870724766    3.10722913387004
H         3.16585941809514   -2.18079480157341    3.27686831808541
H         4.11008722502418   -0.89518040587868    4.20929811008522
H         5.28218083376830   -3.12231446421147    2.80309456460774
H         6.12094562888012   -1.57097929901275    3.15286655565403
H         4.62450353510558   -2.10267756662383    0.60386375507516
H         5.88174959067166   -0.81528623740350    0.81658529303930
H         1.52585026338525   -0.42821586169053    1.56922822189540
H         2.27752857781886   -1.92994686322405    1.43509550906745
H         1.64118846327753   -2.90508963870439   -0.43250146996932
H         1.54806936830384   -1.93156767379113   -1.88721001714616
H         0.43541587576686   -1.65614988560948   -0.51055520564772
