37
 energy: -49.577185227153 gnorm: 0.148207394515 xtb: 6.4.1 (79825abcba525fcdf90b791dcacef51065a7a4e7)
C         2.40939414450621    0.37243755994716   -2.45801217418471
C         2.19299419393165    0.38265649701376   -0.93821576842083
C         2.52918806177144    1.73361623875151   -0.24495999521173
C         4.01756108581980    2.05546160003661   -0.49604402451583
C         4.94821081703650    1.26118783986640    0.43638447148786
C         4.37270105378372    0.91054215536301    1.80106739294338
O         3.26680774494445    1.82274683572168    2.10379822383762
C         2.21555618281547    1.94669578282130    1.21166814243584
O         1.11268168418794    2.19836618563190    1.69834670937014
C         3.85553648852048   -0.57775692294303    1.91683722142200
C         3.84370968735871   -1.02358976640157    3.50985258747918
C         4.67333175232927   -2.24908709394835    3.10258334221092
C         5.04006603494598   -1.69404980263056    1.76015011359322
C         2.55442472528657   -0.89616188064603    1.09555888079379
N         2.85378858181424   -0.76173731336731   -0.32289795693234
C         2.62114541266260   -2.01652240831566   -1.03349066361456
H         2.44179629197365    1.44833833912004   -2.65650028215068
H         1.58988001166959   -0.15133315550748   -2.96900561097646
H         3.35226821242922   -0.08439013801674   -2.76853024239256
H         1.11737828189527    0.29673382754939   -0.75896030667593
H         1.89685074322281    2.46101243356610   -0.77218628676009
H         4.19894902114679    3.10685999591095   -0.22701936358689
H         4.32888041465484    1.93418570534968   -1.53506082830111
H         5.88887889478452    1.79176318752520    0.65090403310249
H         5.10779756079875    0.31884377545700   -0.09476503895487
H         5.10163786029354    1.19913489803462    2.56697931981983
H         2.85233062194180   -1.38320577560489    3.79823205285234
H         4.26378955490772   -0.27208309035971    4.19282124935645
H         4.03529206717009   -3.12878635127074    2.99754981561242
H         5.57634126998904   -2.47114523334251    3.68082931645476
H         4.82651172861127   -2.35188346826113    0.88845494029399
H         5.98713981947835   -1.15510196605455    1.74815648471221
H         1.71334364157213   -0.20427574991464    1.24627651323517
H         2.07449702552494   -1.84753021499212    1.34825955886388
H         3.29390575368119   -2.83363258778018   -0.73952970392828
H         2.82587577103838   -1.91033218281929   -2.10344010891344
H         1.59409098158891   -2.36939132937251   -0.92041805091843
