37
 energy: -49.564759274836 gnorm: 0.136484153990 xtb: 6.4.1 (79825abcba525fcdf90b791dcacef51065a7a4e7)
C         1.00571161641319    0.56349513744776   -1.48810640946690
C         2.16896543405638    0.39365412068021   -0.50083287550744
C         2.80843358712336    1.78878404106698   -0.24900938476355
C         4.31638176453121    1.73514350134950   -0.57319581841722
C         5.19272824960229    1.03745823443604    0.48115454735627
C         4.45900734700565    0.54531178777552    1.72049662909974
O         3.41939549080180    1.48518291688207    2.14782874933875
C         2.62885714343320    2.12330253254848    1.20748746068953
O         1.88289422029635    2.94617609853007    1.73941282267465
C         3.89069554228252   -0.92827468339891    1.68228038720989
C         2.89211241404322   -0.93420809784212    3.00114399554018
C         4.04308462606005   -1.57014044297701    3.79287483515199
C         4.77907399293978   -1.98693654503080    2.55623096719996
C         3.47304677985423   -1.52647881170968    0.29070112189886
N         3.06973007598333   -0.70140209199459   -0.83903000539419
C         2.97477522683284   -1.45352192780106   -2.08756904802509
H         0.26711385094897    1.28513104999276   -1.12516722469335
H         0.44450564701262   -0.36424709040239   -1.66529466539155
H         1.40125247574804    0.91759568357035   -2.44324239528216
H         1.72924031758915    0.04438624358045    0.43784628758505
H         2.25965542971401    2.58220276994459   -0.77460667102645
H         4.64897003553258    2.77848564031067   -0.68060460862976
H         4.36996468892740    1.19153861834033   -1.51807998272834
H         6.04394985590404    1.70482693899224    0.68713036832629
H         5.53562960718437    0.15143400709621   -0.06012151650647
H         5.15658225411911    0.50150410444315    2.56472754121242
H         2.00874278986348   -1.55656369287525    2.83485976246099
H         2.51344187258345   -0.00634676252099    3.45209578414763
H         3.78046435651915   -2.44299058794804    4.39384129066251
H         4.58246225293236   -0.83393253523465    4.39799804781358
H         4.59420969684772   -3.05767684392769    2.31634883809800
H         5.85544931411094   -1.83607056904292    2.47740851470457
H         2.92397398460717   -2.45405441287867    0.50740860336350
H         4.40142336292978   -1.96551684872597   -0.08963089598166
H         1.97216587305678   -1.86751284611413   -2.26098921801566
H         3.70235185901525   -2.26981124622060   -2.13538825523624
H         3.35322308806406   -0.70615369804077   -2.78782659807701
