37
 energy: -49.580837981463 gnorm: 0.151336213533 xtb: 6.4.1 (79825abcba525fcdf90b791dcacef51065a7a4e7)
C         1.93848064503172    0.52309728560933   -2.41030811840447
C         1.99246864456050    0.47813571218533   -0.87675726104883
C         2.60036138740915    1.78320235523128   -0.28854847625133
C         4.13139363918130    1.88706048341416   -0.45297354768106
C         4.95740400704112    0.91113177655991    0.40240510807403
C         4.36077943002689    0.71967427710429    1.78945466884103
O         3.25536954336711    1.61568692727645    2.13873055284600
C         2.34953125407397    2.02584820763990    1.17560336562937
O         1.32301898473382    2.52698963756802    1.63566423868096
C         3.74542519908712   -0.73277994259943    1.87670084742014
C         3.51873278353091   -1.11896223827992    3.46920784452626
C         4.86110502746255   -1.86167669044944    3.42025165732393
C         5.03495030394708   -1.73637750782759    1.93742822423070
C         2.52108869628995   -1.09299017261250    0.96017460369027
N         2.76704753497911   -0.66492533480643   -0.40948710826992
C         2.94768009855784   -1.76159502825229   -1.35724125076448
H         1.31408876121064    1.38383698839823   -2.66967629625941
H         1.42296712915208   -0.39485413746850   -2.72441712954819
H         2.98607435541007    0.59253755062313   -2.71337576309362
H         0.97949627631134    0.42422683434524   -0.46755605983199
H         2.11579645802288    2.66981982133664   -0.71985991724898
H         4.45393649573990    2.87322403591258   -0.08669224665505
H         4.47045547232217    1.85492712650746   -1.48988627303220
H         6.02878812278063    1.15590270271498    0.33451895362841
H         4.93174790132654   -0.04854572073843   -0.12100765969498
H         5.12248910313844    0.90513436377291    2.55539111774484
H         2.64935906384837   -1.75900556938911    3.64198721261189
H         3.38749018957682   -0.20448155119983    4.06433474476139
H         4.88994612331598   -2.90128071381894    3.75250025311916
H         5.65586190224491   -1.37707012813142    3.99698591317519
H         4.88651954498478   -2.73867679600023    1.47746356017250
H         5.92144902948484   -1.29783441813647    1.47987239797446
H         1.58776655428936   -0.65700524242449    1.34444862085798
H         2.49688839209335   -2.17883929705214    1.10030298286659
H         3.80518847289702   -2.27143305069809   -0.89742264723815
H         3.21828248114398   -1.37240397319497   -2.34379452713563
H         2.19511538337443   -2.54416673990432   -1.47287235673318
