37
 energy: -49.578244230520 gnorm: 0.146874523746 xtb: 6.4.1 (79825abcba525fcdf90b791dcacef51065a7a4e7)
C         2.18108737134791    0.42237696609926   -2.43746862774478
C         2.07196030115743    0.42400556758039   -0.90619363452720
C         2.64969552111057    1.74028948349813   -0.31261063888018
C         4.14917593867909    2.10255728369082   -0.35954008391045
C         5.02038413317161    1.08834010924948    0.40122427585621
C         4.31324745350856    0.81105534866890    1.72016104132911
O         3.16929549797484    1.63726997662654    2.11450433676165
C         2.22870223179722    1.87255534505754    1.12641812265826
O         1.15663293990754    2.33018631039752    1.52361770844321
C         3.74275065677827   -0.64450099513145    1.94772441651526
C         3.72674866461143   -1.11861294098971    3.53251667727801
C         5.06801373511914   -1.82422428026410    3.28940075881488
C         5.01534860316435   -1.66074502339930    1.80104988801799
C         2.51066424113135   -0.94254260973895    1.01933555711102
N         2.82866254580604   -0.70609497044664   -0.38162056525312
C         2.60123988270380   -1.97926949403777   -1.06048434637802
H         1.83890998404584    1.31242258244518   -2.97481706178261
H         1.62990339096465   -0.41371186827639   -2.88935926406117
H         3.16950189586337    0.24076638332818   -2.86662925528258
H         1.03726581144310    0.35722879342569   -0.55774997980430
H         2.06602349932485    2.48195773658717   -0.87490810054137
H         4.20110133997291    3.04952831356210    0.19837035344117
H         4.49369928148814    2.25500248732518   -1.38386796151573
H         6.02608657582449    1.50586791148824    0.56437569497771
H         5.16952208491783    0.20722188012988   -0.22884602364848
H         4.99092830670940    0.84260884985411    2.58097969342140
H         3.00749064224515   -1.93729589814374    3.62052205985358
H         3.61773887481355   -0.40666891671538    4.36253362105161
H         5.02328608163063   -2.86971192009315    3.60077271345845
H         5.96812762040633   -1.32257309954489    3.65986735234961
H         4.85477244661121   -2.61558105381462    1.25268277175368
H         5.88323710193568   -1.18094077995872    1.34925922198512
H         1.60588375044259   -0.39402074888799    1.31822622354208
H         2.15579696361432   -1.95930960847199    1.21819232286303
H         1.55673528576415   -2.31113041540676   -0.98587173692524
H         3.22403592125112   -2.80440879577976   -0.70096671926646
H         2.83399666336397   -1.88148872150561   -2.12274885990559
