37
 energy: -49.579857131257 gnorm: 0.138511153541 xtb: 6.4.1 (79825abcba525fcdf90b791dcacef51065a7a4e7)
C         1.76101223247396    0.61187029610426   -2.39850016692314
C         1.98095590836453    0.42534947690773   -0.89067085369890
C         2.60231732658888    1.71463100866703   -0.28207802557426
C         4.12786499826657    1.82633761870549   -0.48727987321124
C         4.99989535355837    0.96968621464555    0.44659058267724
C         4.30628903295770    0.68035683776153    1.77011697065292
O         3.32232521207463    1.70368810162912    2.13256921721790
C         2.33360934907519    1.91031953214224    1.18592585827684
O         1.29892501134613    2.43594472257541    1.59783926818308
C         3.75004755972063   -0.79642130688462    1.84506808496145
C         3.55505044280440   -1.07543595093311    3.46393549160370
C         4.88646863591863   -1.83916492795804    3.46925976756953
C         4.95004755231235   -1.89971128940124    1.97360631404374
C         2.50157340662555   -1.00862445419428    0.91498544748317
N         2.86472961992725   -0.64581341728847   -0.44743672461516
C         3.08283653930841   -1.77243006457168   -1.35115944530467
H         1.01245344149023    1.39061120395382   -2.57522663359725
H         1.50872085066872   -0.33658942657738   -2.89228825829125
H         2.74676193679076    0.92043796260326   -2.75516253444184
H         0.96575702482449    0.38972502317243   -0.48500235427967
H         2.02253378001220    2.53802722742960   -0.72115998690976
H         4.33494994757454    2.84505572516336   -0.12666417792244
H         4.31501160840968    1.69645207524441   -1.55465486252219
H         5.89215405891889    1.57703006507811    0.66429017977141
H         5.37752219145727    0.08520169371275   -0.07368352423242
H         5.08395407954560    0.80800873666713    2.53182411430001
H         2.77112385590029   -1.75791218040901    3.80305808476110
H         3.55976534905288   -0.14527429240578    4.04913000977661
H         4.90027226945986   -2.85610979447923    3.86628628991104
H         5.81039663374328   -1.38446965576917    3.84170261503334
H         4.78534325853222   -2.87080965745024    1.45587714827441
H         5.88999864792283   -1.52477342080404    1.56929097996051
H         1.78970302839248   -0.30203581648659    1.36533272369042
H         2.10659075170737   -2.02469932490103    1.01924704590046
H         3.53656328721807   -2.55996150248643   -0.73421954692070
H         3.79486287686941   -1.46004604368126   -2.12149535441978
H         2.16640119344820   -2.13684568538470   -1.81965726029672
