37
 energy: -49.581598665420 gnorm: 0.134648538833 xtb: 6.4.1 (79825abcba525fcdf90b791dcacef51065a7a4e7)
C         2.15161115991345    0.51803821007503   -2.39294273158186
C         2.15822499840656    0.43245254449040   -0.86018514392367
C         2.66280090915501    1.81143946991594   -0.34781779365083
C         4.18486864081049    2.03163666046540   -0.47706512774785
C         4.94954138762252    1.04729653397968    0.42446285871211
C         4.28785338861058    0.80698775906592    1.77388644248892
O         3.23589872995520    1.78586509652514    2.06016229776143
C         2.28710401184971    2.05615682790106    1.08901853126162
O         1.21311982158126    2.51580576247474    1.47864268994704
C         3.76223890528004   -0.67605342147217    1.91606315161925
C         3.71990965077684   -1.21934259658007    3.47800099726621
C         4.89790076426024   -2.17125500023268    3.22863296768075
C         5.03897394823771   -1.69275647370222    1.81589629274507
C         2.42620771020340   -0.88279993013125    1.11540832486187
N         2.79236239546096   -0.74846927458930   -0.28730137155584
C         2.65168767896651   -2.02356788505092   -0.98578874625634
H         2.03627612331664   -0.44458846008345   -2.90093646085068
H         3.09904398011927    0.95837711947561   -2.73283413006855
H         1.27520624680730    1.07407012039644   -2.73480157226371
H         1.10666283823605    0.30584718747076   -0.58695828872358
H         2.13827615195228    2.56186690173324   -0.95498803435570
H         4.57070279835873    3.04324913559698   -0.28088505076889
H         4.36580342828460    1.81169861512294   -1.53066531197741
H         5.99218280547754    1.35731077591706    0.59527065286423
H         5.05517686887879    0.12429478610050   -0.15217304918138
H         5.02187970797415    1.11984025996800    2.52527474654028
H         2.73404360829539   -1.68726913178348    3.54457233470980
H         3.90121538060156   -0.42396429839719    4.21432780089489
H         4.65986278036806   -3.23613806021102    3.26550366892990
H         5.77847523499344   -1.98715472382978    3.85297269859737
H         4.88176260699935   -2.49660836689007    1.06269660673317
H         6.00645719314390   -1.19963716769037    1.72442562383763
H         1.70249626328342   -0.10707657010260    1.40408568159324
H         1.98974912228459   -1.87212486045134    1.28870002655200
H         1.63363964429634   -2.33163514611848   -1.26030891386916
H         3.00062220760185   -2.84433553326351   -0.35130639252148
H         3.33983314154856   -1.99885159266601   -1.83313024828726
