37
 energy: -49.580981316362 gnorm: 0.132049706444 xtb: 6.4.1 (79825abcba525fcdf90b791dcacef51065a7a4e7)
C         2.20540220042615    0.60549261437077   -2.40162558493627
C         2.12923718917372    0.46530484441250   -0.87477891409684
C         2.74111934189097    1.80664245780306   -0.37966705793939
C         4.26974494271118    1.99486629910434   -0.47844672307905
C         4.96026398689764    0.99574612017369    0.46566393007532
C         4.31892131362499    0.88167980438911    1.84123355053752
O         3.22339035797460    1.82085429126472    2.09525427173010
C         2.33124818290010    2.01155844360240    1.05405134782463
O         1.19329444884653    2.37257040536149    1.35614048756676
C         3.79963949420784   -0.60096674097512    2.00857024450149
C         3.83660496474698   -1.18235195634367    3.55686915059083
C         4.80043816838091   -2.29627346448693    3.12537276516520
C         4.95433807951659   -1.72887795193182    1.74730725634493
C         2.50839218501292   -0.84215853047862    1.14643422189678
N         2.71095737327639   -0.73731798481304   -0.29151023163895
C         2.48246985251415   -1.96364764239103   -1.05141777263414
H         2.03626277320767    1.64638219335615   -2.69479899587299
H         1.65053304750669   -0.14008907225323   -2.98752799496088
H         3.24663047999268    0.46119194859169   -2.70019804601624
H         1.15201681049585    0.56026394980785   -0.39260891212910
H         2.18736941165679    2.56963092329744   -0.94369975061601
H         4.47010852957805    3.02098479460659   -0.13544570582794
H         4.61029672613609    1.99962267452832   -1.51535816299023
H         6.02801381277653    1.25382755547949    0.54109299010070
H         4.88206671941910   -0.00810635123043    0.03932432496174
H         4.97514260945810    0.99559307186060    2.71166625125921
H         2.87206240353250   -1.59760712930868    3.86107240748500
H         4.23746835114753   -0.46483142825466    4.28635417417158
H         4.39219753208984   -3.30879383949904    3.11356027555799
H         5.69853115888285   -2.39922029123867    3.74338194066177
H         4.66839921721670   -2.42883377077516    0.93091037935116
H         5.87331083577437   -1.17981758545526    1.54339758385530
H         1.67895675923017   -0.19775677968673    1.47143092067825
H         2.25273562589118   -1.88526814561369    1.36056499309045
H         2.94822194569102   -2.80697475403256   -0.52362715726968
H         2.92097376724177   -1.99184220355009   -2.05386581256635
H         1.44533706222173   -2.30390118886371   -1.07835819249308
