37
 energy: -49.579627085253 gnorm: 0.136370632535 xtb: 6.4.1 (79825abcba525fcdf90b791dcacef51065a7a4e7)
C         2.46718042854461    0.61795254606512   -2.38992312007834
C         2.12835269349709    0.35493576729146   -0.91590398182412
C         2.56539049097318    1.69269325902298   -0.25399389917571
C         4.05781137836162    2.03034683495037   -0.45536873729402
C         4.88403967930081    1.05801662364341    0.40388871868738
C         4.24850960731153    0.89459681714173    1.77717631753647
O         3.16343857841913    1.81004685323216    2.13957859581092
C         2.17625154619193    1.94317909489356    1.17826344268111
O         1.03774532090641    2.28254303135878    1.50255013874733
C         3.82829543746437   -0.62002643216556    1.93602346743805
C         3.78847768264795   -1.19955306216267    3.48494830607133
C         5.15501869198686   -1.86177847630890    3.26132390166923
C         5.05556345437715   -1.68872682543776    1.77645044634862
C         2.55046783773088   -0.98152710538227    1.09623449958701
N         2.75844178654083   -0.82482973220284   -0.33621138899447
C         2.46684715755153   -2.04527986164195   -1.08389080525405
H         2.11410618333323    1.59444446562837   -2.73606184409098
H         2.07545846320127   -0.16655240319661   -3.05185918451151
H         3.53653090001585    0.55728346426617   -2.60656419647752
H         1.05163082394895    0.36177667086391   -0.72332146359603
H         1.99559555960454    2.45057636713032   -0.80885442313939
H         4.20998847442083    3.08708787440052   -0.18918282942575
H         4.40237716170821    1.94097623934592   -1.48710067850382
H         5.97180909710154    1.21669106775843    0.46685992770261
H         4.67560615451569    0.14270725559433   -0.15679326900759
H         4.95991842583064    1.14095202600692    2.57370774664306
H         2.96820879547336   -1.90576332132925    3.63904196975502
H         3.81673280482365   -0.39367687430525    4.23156787667797
H         5.37450889523060   -2.84743772076351    3.67641108046198
H         5.86251110455518   -1.10715134731213    3.62062432479663
H         4.61770217151905   -2.62906896953167    1.37366366090858
H         5.95747381025405   -1.58673792568159    1.17336394470240
H         1.81483283979458   -0.28890209155181    1.52976805742659
H         2.25817370062471   -2.00815267497662    1.34096702243942
H         1.41580045675980   -2.23637060846507   -1.33976913603563
H         2.79664845713707   -2.99894476378967   -0.65993674059171
H         2.94346700481632   -1.96309312504238   -2.06277872242453
