37
 energy: -49.579263107105 gnorm: 0.139287408025 xtb: 6.4.1 (79825abcba525fcdf90b791dcacef51065a7a4e7)
C         2.71792764846626    0.43824617907300   -2.41747556036660
C         2.23556870951732    0.40459933871120   -0.96045386162573
C         2.68591963896741    1.70560092061086   -0.23705837915465
C         4.16656327281461    2.12729218578532   -0.34546863517835
C         5.00397668778887    1.16450157093455    0.51370283951793
C         4.32185736830388    0.76125228747290    1.81317449812139
O         3.25320929505042    1.69073163653341    2.18843810403377
C         2.32323359265377    1.96541857260980    1.20046971022364
O         1.26408495461239    2.51993156469636    1.49584351813751
C         3.72109348064271   -0.69933250157520    1.85404991899486
C         3.64043155441617   -1.27928836178533    3.40122463280162
C         5.04417902031141   -1.84104138752709    3.13681718357871
C         4.87936744306654   -1.83493349921547    1.64769420665057
C         2.37349529223066   -0.90507567203300    1.07275579234946
N         2.70438233315828   -0.82988682265377   -0.34307219278834
C         2.15282769545727   -1.98607338666020   -1.04490592233815
H         2.79220010180377    1.45256507350074   -2.82201318937012
H         2.06726220603350   -0.18455262894636   -3.04660956573419
H         3.70416280011365   -0.02950123295649   -2.36573471920534
H         1.14356661883006    0.46622578171838   -0.97454021974862
H         2.06215177951343    2.45764542715090   -0.73931926101360
H         4.18170244668706    3.13370014962975    0.09908535932860
H         4.53070545321259    2.22069284641801   -1.37009552819194
H         5.97281132511673    1.59269914119504    0.81435472041904
H         5.26974380940849    0.27658135590108   -0.06643988978356
H         4.92549274046012    0.95971584507735    2.70619872739259
H         2.95884186271704   -2.10624781946722    3.61777112523593
H         3.54482623448443   -0.60660379160015    4.26495529569950
H         5.34364796109523   -2.83465994286028    3.47598968373111
H         5.86303191917082   -1.12878775527182    3.28269078375129
H         4.41623586355036   -2.71456016645924    1.14772509371597
H         5.75387181793382   -1.53100728974599    1.07286525636750
H         1.59170143660747   -0.17083982296460    1.31469730055830
H         1.91799624465842   -1.80629510628182    1.49656481560070
H         2.57452347124284   -2.87454842541802   -0.55554578143589
H         2.37959709830993   -2.03981104978342   -2.11433128203556
H         1.06749031358411   -2.10487948581516   -1.03650517184630
