37
 energy: -49.569288724754 gnorm: 0.135036685166 xtb: 6.4.1 (79825abcba525fcdf90b791dcacef51065a7a4e7)
C         0.97488386300444    0.51210222002563   -1.37890931318268
C         2.13197613719124    0.35016834461991   -0.38310341999785
C         2.84276036573931    1.72156379011241   -0.20204420698721
C         4.32817435416039    1.63476091784373   -0.61179096783297
C         5.21595695573244    1.00443868594853    0.47491898892429
C         4.43233895188792    0.61491442424091    1.72020488356403
O         3.39300948353865    1.56833574448457    2.11712467681136
C         2.68899516116960    2.30237586510753    1.17800904356955
O         2.03454984139938    3.32157404841325    1.40041081353690
C         3.84936720592195   -0.85342107132596    1.71466380039776
C         2.85666329004107   -1.11465041724837    3.01193126186755
C         3.93143826288262   -2.00501865370544    3.65074881186487
C         4.89254330200483   -1.82505121499062    2.51559410039855
C         3.31713542060409   -1.50807649994800    0.38917250723407
N         3.18466820155003   -0.59422744311184   -0.73645655659075
C         3.11784693057470   -1.37949185167011   -1.96627165900012
H         0.34447678986462    1.37401137582480   -1.13868141995458
H         0.20379497508807   -0.25184662287488   -1.20903417671310
H         1.32020271543936    0.35491736596255   -2.40368847885073
H         1.69613350430182    0.04002716407791    0.57100268402656
H         2.32939172129574    2.35367652524764   -0.93947853040834
H         4.69820087777093    2.63337173879745   -0.88850603420864
H         4.45254197229262    1.03131876905732   -1.51266484910609
H         5.94918015667894    1.78416843100339    0.73335759219284
H         5.66834933528954    0.10158951850510    0.05562844234956
H         5.11968992559399    0.64166980507517    2.57348589771625
H         2.03898988679770   -1.78087621895460    2.72405590946602
H         2.50026319802525   -0.16922794674050    3.44417064831997
H         3.59029987324611   -3.03564633698729    3.76663081559074
H         4.23068702294633   -1.59718123429456    4.62194561403457
H         5.17644627571147   -2.69215574807139    1.87862324546538
H         5.77308230561906   -1.23360566719459    2.76539519821753
H         2.34073990595114   -1.91423919149881    0.69004335589365
H         3.91482317235394   -2.36948189315225    0.07288146836291
H         2.18193887713702   -1.93888889947836   -2.09983670410025
H         3.98362648429876   -2.03820842406273   -2.08669149333510
H         3.28690003171425   -0.70677373655905   -2.80948816845744
