37
 energy: -49.583382665695 gnorm: 0.143494424526 xtb: 6.4.1 (79825abcba525fcdf90b791dcacef51065a7a4e7)
C         2.05943784030244    0.42727316711555   -2.42102149004625
C         1.99610276990630    0.44116711683074   -0.88723202321293
C         2.80696017836525    1.65504952143085   -0.35083485539801
C         4.31721923385650    1.35012045412348   -0.44037661735469
C         5.06888253809590    1.57612653521803    0.88262230329480
C         4.27327645841411    0.98628723960784    2.03831425884885
O         3.05042510104695    1.78622282324152    2.14555670225617
C         2.28017291391364    2.00215946573333    1.01574600838842
O         1.24941756074629    2.63341873112028    1.25150292830591
C         3.83647262756678   -0.53037308481228    1.96874556573034
C         3.85580115877025   -1.35806039175002    3.40093439581083
C         4.87135687288141   -2.33531516969244    2.79298341665627
C         5.14834443030158   -1.44278072101169    1.62193792496312
C         2.58599018696304   -0.87674829944660    1.08269281150338
N         2.72525020221236   -0.70393809120895   -0.35621363016508
C         2.30337332660520   -1.94946576468914   -0.99200541768155
H         1.83618760550159    1.43211850754260   -2.79311702838442
H         1.33941848301258   -0.27783031592553   -2.85857682983007
H         3.08129306148124    0.19126842259883   -2.72800389677441
H         0.98403944061552    0.47383558806342   -0.47355895594023
H         2.70134319005188    2.61199574096575   -0.88000615109438
H         4.81588317260979    1.94464512386346   -1.22049784071418
H         4.42319653119651    0.27100128219263   -0.56469120663965
H         5.22675973405932    2.63366798816985    1.14542665840936
H         6.09706249008221    1.20537591328294    0.85115784735344
H         4.82332529987538    1.16608302749107    2.96910717420180
H         2.88064075092813   -1.72657881387458    3.73044187843024
H         4.22527212336417   -0.76022681267033    4.24577863066956
H         4.46461334570309   -3.31572218876418    2.53732888186765
H         5.56671663668158   -2.56263086030556    3.60778816907798
H         5.17406566233603   -1.90994574361875    0.61233488554319
H         6.10387320467203   -0.91938804625247    1.64606734768542
H         1.76397751911270   -0.31700226331373    1.55154156404379
H         2.39308489121699   -1.93745605592438    1.27498565731513
H         2.84425024615439   -2.83528928981654   -0.63220351396050
H         2.45244597676520   -1.84022414931736   -2.07081323937997
H         1.24960066624028   -2.14969811904210   -0.78801305852439
