37
 energy: -49.551780846151 gnorm: 0.155977063931 xtb: 6.4.1 (79825abcba525fcdf90b791dcacef51065a7a4e7)
C         1.11281309943100    0.81561744571555   -1.77850083402643
C         1.87038259563866    0.49298927573225   -0.48284887870821
C         2.72913013219586    1.76055497584958   -0.20980677604195
C         4.18852869922056    1.55520759753488   -0.66792264642358
C         5.15271409431668    0.71458452170413    0.18653740170870
C         4.61182387105730    0.58728465186481    1.60349041140444
O         3.67504414493810    1.59925340534194    2.09859271951264
C         2.64126851479368    2.00601204461562    1.27261171185116
O         1.68863635505008    2.64672705562837    1.71814783330954
C         3.95977011159382   -0.84356584686213    1.75642396043860
C         3.04740084300409   -0.96546084062142    3.13095247906803
C         4.11814121259303   -1.84213198516050    3.79499123342426
C         5.02619197809750   -1.74500202116286    2.60726358452057
C         3.15574919104148   -1.44610193284215    0.54842057607452
N         2.72962998547161   -0.67741296021156   -0.61228958393030
C         3.18114506740281   -1.31937307948483   -1.84418720849716
H         0.40959881186315    1.65432911795285   -1.78639382580972
H         0.61024754944992   -0.03590110032104   -2.25745542035378
H         1.78037493277602    1.12798645408208   -2.58529158960549
H         1.17139961552202    0.19416565574125    0.30365734147117
H         2.28760090065783    2.58708823973815   -0.78323328390326
H         4.63104713054310    2.55494221400403   -0.79211029068882
H         4.12082029620062    1.13854445639781   -1.67439713143507
H         6.10855864807238    1.25337556711205    0.09460994288313
H         5.27730225585505   -0.30896196536082   -0.17737251779243
H         5.36426110548290    0.71557760864380    2.39002383942139
H         2.11534826262064   -1.44432853238001    2.81905095773629
H         2.82620815870953    0.02817141375539    3.54501081487617
H         3.82822439646239   -2.85896965086029    4.06699649414640
H         4.35362839257750   -1.38514274601005    4.76184749578739
H         5.14901649767837   -2.74563263954236    2.13624814951917
H         6.01356543420764   -1.29726472300001    2.71763715296773
H         2.30848926357140   -1.98559386670749    0.99556557648495
H         3.82639854152675   -2.25679233073247    0.24461069490915
H         3.02350900423347   -2.40624807563902   -1.82090262678536
H         4.26599017644936   -1.17416070834493   -1.84686085538726
H         2.53155711271829   -0.85050431259384   -2.58603642392290
