37
 energy: -49.578829440305 gnorm: 0.143867271706 xtb: 6.4.1 (79825abcba525fcdf90b791dcacef51065a7a4e7)
C         2.34242453921070    0.51482084037993   -2.44402652440126
C         2.14036711411731    0.44372746053922   -0.92388409952172
C         2.53439992158587    1.77240280184581   -0.21813480698479
C         4.02431142542037    2.09047259646896   -0.46486783569375
C         4.98192054097105    1.11835652631008    0.24532772421015
C         4.46883132298150    0.79815817451918    1.64201515571673
O         3.43227304022485    1.73274322188829    2.08795352511317
C         2.32536184255821    1.87518095220007    1.26890019790434
O         1.32901789580172    2.41732120762843    1.74838832025371
C         3.89815137722760   -0.65212496620281    1.90066382577277
C         3.53697613037009   -1.12416387917902    3.44446964955052
C         4.57710348602478   -2.25056919465952    3.37145696988759
C         5.06233235828835   -1.79307515667383    2.02983871521757
C         2.61822522011049   -0.93434299236504    1.03411110361071
N         2.80479244653099   -0.74191969906339   -0.39692851758943
C         2.46008598705662   -1.96702709594658   -1.11375470293829
H         2.09423693379382    1.54760932465948   -2.70814916429291
H         1.88462595581429   -0.18124905275442   -3.16023921404314
H         3.40979388374962    0.45586660035011   -2.67067956748335
H         1.06403766947220    0.34622930230150   -0.75514217354385
H         1.97930710082879    2.63013811301349   -0.62197308169629
H         4.19781697736526    3.14493029807263   -0.20270528056219
H         4.15430623544246    1.94763767888809   -1.53905730985041
H         5.98303938898003    1.57566284827992    0.27722187811743
H         5.13488483610397    0.20248337033166   -0.33206151344364
H         5.31650787460597    0.98529499558522    2.31110407203753
H         2.49605185222972   -1.42833454604264    3.58330654583195
H         3.87904344811378   -0.29110765642540    4.07429728306856
H         4.15010074289537   -3.25153776644931    3.28354771279743
H         5.40949395349808   -2.17393392300339    4.07881653545342
H         5.06821682829046   -2.54498956133232    1.20959903279610
H         5.95756153887523   -1.17335545839348    1.98434612265055
H         1.78671059438251   -0.31126311687625    1.39354745510166
H         2.39538373929378   -2.00432055565952    1.10324590529242
H         2.89478311472120   -2.82689361312999   -0.58615964531371
H         2.97855135871164   -1.81790038960796   -2.06608740933681
H         1.38820010588981   -2.08068435516395   -1.28778164312724
