37
 energy: -49.575094147405 gnorm: 0.147403039560 xtb: 6.4.1 (79825abcba525fcdf90b791dcacef51065a7a4e7)
C         2.50353103416463    0.34114739267291   -2.42602904631639
C         2.21186899944444    0.33906050601485   -0.91883185181917
C         2.58130994089416    1.70525663398913   -0.27405000374139
C         4.03836960719869    2.20207837250130   -0.38371840642347
C         4.93986520214036    1.18391973493404    0.33535134626649
C         4.33125320629268    0.91491389654932    1.70420146448316
O         3.23424734029086    1.84644872381201    1.97912751211842
C         2.12458257087358    1.86164336768655    1.15159956308186
O         1.07064362006699    2.14215945683831    1.72348205757258
C         3.89901279898564   -0.59634908735814    1.86278392922242
C         3.77995817952945   -1.06093315319560    3.44600608389677
C         4.95055566902691   -2.02492220144380    3.20849537339667
C         5.04398184163346   -1.75699172169097    1.73738279854954
C         2.55278526922780   -0.92935012759714    1.12416806286470
N         2.82244406858965   -0.83278514465292   -0.30330096322169
C         2.37917469689452   -2.03353483502117   -1.00705015281316
H         2.22826867629566    1.29121323974990   -2.89466048940806
H         2.00492462358912   -0.44753599192235   -3.00604941885578
H         3.57293129367944    0.20222027205113   -2.60268369534512
H         1.12559310938255    0.28872782114583   -0.80078049986020
H         1.91101085642067    2.37693863428819   -0.82764344477085
H         4.14686270995725    3.08790852524188    0.25990308391407
H         4.27630298797134    2.43539324542865   -1.42301401341738
H         5.98043620133991    1.54332026972747    0.31465074600422
H         5.00788095484931    0.25640654118346   -0.23970794859010
H         5.00724096297233    1.15136092445023    2.53389362154014
H         2.78829505050482   -1.32652798265922    3.82201467686332
H         4.09687071561438   -0.29682493295299    4.16945659543185
H         4.74701115165931   -3.07425897880608    3.43089011340074
H         5.78678473937507   -1.69242065137793    3.83240888730142
H         4.57716326350777   -2.51606170547873    1.07097734914025
H         6.01229288219090   -1.38416773486702    1.40431618605424
H         1.87198848461236   -0.13013118388428    1.45067140581944
H         2.24859465133449   -1.94701093331810    1.39085982056783
H         1.28536425983002   -2.12471536829543   -1.05124751021690
H         2.95519084056115   -2.85490500496705   -0.56939829649037
H         2.65711252781201   -1.88771435178743   -2.05281764522898
