37
 energy: -49.580415838289 gnorm: 0.133984222831 xtb: 6.4.1 (79825abcba525fcdf90b791dcacef51065a7a4e7)
C         2.24174666488496    0.61682617668902   -2.44211657074686
C         2.07398165778042    0.49859185336374   -0.92073890146481
C         2.59257883721253    1.83779695480484   -0.32382286027146
C         4.10829541508506    2.06619379365293   -0.50360050438403
C         4.92910049927058    0.95894203275535    0.17953575583405
C         4.49007687889203    0.76832702645690    1.62433590855870
O         3.38053742615498    1.64771654779251    2.00164159371642
C         2.31758271994255    1.90942313592413    1.15427733429142
O         1.20664888821132    2.17910605840412    1.61212370758446
C         3.85839657201729   -0.63840360502042    1.96782512924459
C         3.75571750730522   -1.03188126565557    3.57133285951604
C         4.51292753464650   -2.33235529489663    3.26903338280989
C         4.96622578664335   -1.84045706198572    1.92842000928434
C         2.54076873562062   -0.77959875607258    1.12361401211479
N         2.81384449937941   -0.58973985059698   -0.29381029586498
C         2.74970012031144   -1.86997620943102   -0.99411795420391
H         2.05229556461756    1.63514875745553   -2.79586409120681
H         1.63392691886575   -0.08683291519203   -3.02732807061292
H         3.31929130444447    0.47201842869575   -2.55190178838759
H         1.02938881144360    0.40576023878584   -0.60981628057391
H         2.09917948171339    2.67595761033896   -0.83467219209631
H         4.21370315237134    3.01022283274401    0.05174877044915
H         4.29858025523009    2.27758865907677   -1.55730224838329
H         5.95472263626592    1.35705544602224    0.13492413000802
H         4.85479545902033    0.02895152934596   -0.39072424485099
H         5.30803599848705    1.06326699524070    2.29157573446441
H         2.72807561759110   -1.19154368276220    3.90864411956409
H         4.22134960487434   -0.35133486236321    4.29777549245141
H         3.84504941762972   -3.19073542544532    3.17353556402421
H         5.33523107126234   -2.58430566961660    3.94685512285408
H         4.71620773775107   -2.53273116980595    1.09388386704326
H         5.99681656464205   -1.50030874600102    1.82973298933125
H         1.77570161527891   -0.14203282611612    1.58946976045862
H         2.11219288237414   -1.77146350040732    1.30198718377205
H         3.34500130190684   -2.58601903607778   -0.41137638324882
H         3.16479372345982   -1.93358741309256   -2.00487687925168
H         1.78274008262873   -2.36032514436832   -1.12330346004292
