37
 energy: -49.563682286111 gnorm: 0.137262031486 xtb: 6.4.1 (79825abcba525fcdf90b791dcacef51065a7a4e7)
C         0.90276054033799    0.51145158345681   -1.20910254554338
C         2.15197770282260    0.31208218622985   -0.33937684762692
C         2.83350541288495    1.70920875450651   -0.29163333104924
C         4.33747657335076    1.73595323355284   -0.63694094423678
C         5.26353924646892    0.98063189393758    0.33171802054556
C         4.54645433075506    0.62057117240987    1.62503499047739
O         3.49004558189980    1.56423891409278    1.99954137586304
C         2.69863245968790    2.26072420964699    1.10234420807834
O         1.93021787642341    3.14098280055094    1.49120152309582
C         3.96545483541087   -0.84353638216359    1.74637967334506
C         2.81172351966368   -1.11696001549640    2.89996029704708
C         3.85691275549035   -1.85762810140889    3.74552220949362
C         4.86405790044152   -1.87983132760218    2.63653480316411
C         3.56683473126617   -1.56504732358798    0.40873415314577
N         3.11987434313283   -0.72015003887593   -0.68948413509269
C         2.83657061241764   -1.39275407955470   -1.95474823220527
H         0.07476028542083    1.04466706247068   -0.73149733831665
H         0.48287686619524   -0.41434839914848   -1.62581054494616
H         1.23729063042756    1.09050583009558   -2.07334228198548
H         1.82290614576954    0.14774165509773    0.69075368023050
H         2.40971621250693    2.39435762307866   -1.03855835995929
H         4.74574419823271    2.75746781729279   -0.66017729344206
H         4.56250481865257    1.35693161574732   -1.63538392368892
H         6.09978862834156    1.66839522208646    0.53185255034367
H         5.70330413886166    0.03536434171263    0.00205738426546
H         5.29801237620310    0.89859467147826    2.37277767932276
H         1.95915972678883   -1.63688316708009    2.45483815199881
H         2.36481659991441   -0.19225590808296    3.29094888453379
H         3.64067272361535   -2.90215903410009    3.97831576710902
H         3.97898815821570   -1.27440203649690    4.66424380093417
H         4.92294922639160   -2.84922556636478    2.09338688658059
H         5.82209487997779   -1.46660692708118    2.95112675630971
H         2.79088869223427   -2.31188332919385    0.63005589803687
H         4.48845315719980   -2.04294502312660    0.06013238889307
H         2.06246506984756   -2.17179735285156   -1.93149435356900
H         3.71429230540319   -1.83237020792187   -2.43881948418425
H         2.70653255357619   -0.59367331902162   -2.68734821299192
