37
 energy: -49.574726195911 gnorm: 0.126869632507 xtb: 6.4.1 (79825abcba525fcdf90b791dcacef51065a7a4e7)
C         2.45212592082253    0.42211682119341   -2.41686837487450
C         2.19417698018661    0.34778449375764   -0.90536199648564
C         2.83945603005096    1.60112153902670   -0.24848810981913
C         4.37974406882934    1.53425738451918   -0.31865792427694
C         4.99933576331635    1.73179961113294    1.07543167871581
C         4.12458372560193    1.02403864679971    2.10032514566506
O         2.85392329141698    1.74461841221752    2.21412400813614
C         2.20480178569551    2.06650848695410    1.03454047642840
O         1.21168746252562    2.79464870933343    1.02667061010313
C         3.87564232221548   -0.51890858226909    1.86959162709396
C         4.01601466795107   -1.32559376408315    3.30700574591073
C         4.99685785805512   -2.30880760698579    2.65338362424635
C         5.12438775183539   -1.47253769235749    1.41682543613456
C         2.54300636629335   -0.94132269593309    1.15236130656180
N         2.59396170732296   -0.91776093150097   -0.30247780591899
C         2.00946727753134   -2.10885605756536   -0.91338623767699
H         2.94516719212925    1.37927995755005   -2.61374130164503
H         1.61180127008413    0.39825281446471   -3.12421443889333
H         3.19853289099555   -0.35267341022570   -2.60844410800420
H         1.12932426550390    0.54985018259628   -0.75797487422047
H         2.37424322408454    2.34590140510453   -0.90864208483199
H         4.75768501943854    2.41757615620484   -0.85496289431200
H         4.65592907275871    0.54650746815632   -0.69182736440224
H         4.95593846201709    2.78739734255325    1.38561770467256
H         6.02748448502769    1.36460231685497    1.01479831412088
H         4.59902133304487    1.04815681778339    3.08804119109785
H         3.08435224359540   -1.78791409540570    3.64402781019144
H         4.44941843461728   -0.77837232150730    4.15576097095860
H         4.44536786442489   -3.24672737895788    2.56303568104586
H         5.92295645210283   -2.64813122737844    3.12909917399168
H         4.88615106231860   -2.04438225384091    0.49246613604560
H         6.08339918452388   -0.95732694516114    1.46594078408147
H         1.73399593762059   -0.28976620784805    1.51266100077743
H         2.32852007795970   -1.94028871508474    1.54650906644296
H         2.22964075627962   -3.00932942411416   -0.32401375926566
H         2.43741611214994   -2.33220929970481   -1.89570788351847
H         0.91774121539094   -2.12091693164838   -0.90192195310525
