37
 energy: -49.553709979556 gnorm: 0.138126471213 xtb: 6.4.1 (79825abcba525fcdf90b791dcacef51065a7a4e7)
C         0.88932421730859    0.67965817671849   -1.57082736528045
C         1.99135699210758    0.47666503678356   -0.52152665865622
C         2.87050704479647    1.73667839417562   -0.28031395584765
C         4.36386109917104    1.54758344581536   -0.62092901663613
C         5.13571019700287    0.84936994348820    0.51183286209052
C         4.34547694330928    0.56681476630628    1.78156404452711
O         3.32792517312776    1.55866748365061    2.13874730724594
C         2.70496997793330    2.26049164480144    1.12102488302535
O         2.03528274079357    3.27010426618502    1.34176803931892
C         3.73616109480357   -0.89069436317105    1.76432390732789
C         2.96969050095984   -1.36444933329003    3.15165361836834
C         4.33722286904682   -1.69502772200139    3.76529671969318
C         4.98573711843721   -1.72076957587593    2.41494342502418
C         3.18348396651419   -1.56530536146688    0.45733519162991
N         2.67199106944299   -0.80345021491525   -0.67300108525017
C         3.19675246757230   -1.26358720714102   -1.95614168834679
H         0.32324806667339    1.56441811986600   -1.26298399863128
H         0.22502733876539   -0.17835334736203   -1.39884089054046
H         1.31071127139636    0.65530238612393   -2.57877788982466
H         1.48766788094379    0.36635589320267    0.44314632709253
H         2.49033906817803    2.59261263150376   -0.85457186687783
H         4.76993587211538    2.54232927172080   -0.85820194683333
H         4.29473139372912    0.90228441540458   -1.49842188616874
H         5.93647765897680    1.56260415628116    0.76174023130543
H         5.49302577312765   -0.07759487216676    0.05503765807199
H         4.93217166170702    0.61870242564954    2.70587604952126
H         2.52136083198185   -2.33226187396882    2.91153234421073
H         2.28928596971216   -0.69705637855123    3.69874763625895
H         4.32291918866761   -2.60864825893309    4.36286711838395
H         4.69743656580869   -0.87965422564215    4.40131288703959
H         5.15531289211685   -2.70083208618051    1.91602001169410
H         6.01453339532971   -1.36149279216049    2.40747552539477
H         2.39204006388774   -2.24193253862490    0.81036747353390
H         3.88358231465841   -2.25436680702507   -0.02675832187999
H         2.36695814832859   -1.70259642905301   -2.52658085618832
H         3.88397650824352   -2.09399088643424   -1.76604822126288
H         3.67077007289003   -0.60091354111041   -2.68299352032430
