37
 energy: -49.577311222799 gnorm: 0.143733103745 xtb: 6.4.1 (79825abcba525fcdf90b791dcacef51065a7a4e7)
C         1.71477525595340    0.48584067106279   -2.34046847657809
C         1.94903473093499    0.44355911900755   -0.82387715844828
C         2.75874216243504    1.69077811512743   -0.36831076915261
C         4.28423663949232    1.47237558878994   -0.45226784628495
C         5.06141453277076    1.40458112463469    0.87355304172289
C         4.20883962340432    0.87531997284887    2.01789650750206
O         3.07114177504543    1.78814058042644    2.15633581644378
C         2.41047498913471    2.19024502707587    1.00819790907145
O         1.44598054586125    2.93875397468496    1.16947717379957
C         3.83825906251318   -0.65753386320951    1.92342398063879
C         3.77991464814362   -1.27642572162201    3.45645154470674
C         4.80842116836339   -2.33216913155019    3.02800680487023
C         5.12522866020780   -1.64814417556392    1.73323645020227
C         2.56849036761306   -1.04000375059972    1.08070468858779
N         2.61555389626660   -0.76222141572186   -0.34769665655060
C         2.80755143596850   -1.89353949286405   -1.25147028408593
H         1.21467940502427    1.43835351177109   -2.54204560477220
H         0.90286026111330   -0.25340372904328   -2.37741751674992
H         2.54805593433602    0.29623373367407   -3.02150961688193
H         0.97638023352901    0.54460857664370   -0.33377815777307
H         2.53139473008880    2.45564691749486   -1.12343467287515
H         4.77652170146260    2.21303197641130   -1.10018601867173
H         4.39135752938157    0.51009223355263   -0.95597346054742
H         5.46577558860118    2.40219570881027    1.10516162269570
H         5.94495402432281    0.76738176890299    0.77902793253060
H         4.68680180251762    1.01369476311480    2.99445181685716
H         2.75007486506264   -1.56316321001393    3.68564680943922
H         4.18204977233003   -0.54401317976236    4.17026859183637
H         4.46224146243141   -3.36592153641776    2.96873590462621
H         5.64813666743251   -2.34597058977190    3.73071002242655
H         4.85594926898497   -2.34327717709322    0.90711190810670
H         6.06556484485828   -1.10009770963592    1.67873610104142
H         1.72376985732777   -0.49530869568034    1.52634371841559
H         2.28255922491236   -2.08227246726060    1.25736597717563
H         3.77655430137317   -2.33367082560856   -0.97942908546120
H         2.96217211993743   -1.46285530464779   -2.24574703810335
H         2.07848901133200   -2.70587425125685   -1.22458348607752
