37
 energy: -49.582015569689 gnorm: 0.150425788051 xtb: 6.4.1 (79825abcba525fcdf90b791dcacef51065a7a4e7)
C         2.53838375632420    0.42782184679549   -2.42550811819389
C         2.15168901867925    0.38894005598295   -0.94035834596187
C         2.51699297804827    1.73389652621081   -0.25016478132659
C         3.99685416734476    2.15964552896462   -0.35326906940434
C         4.89631929958928    1.15156611144460    0.38235377922531
C         4.33399953460501    0.79173874947923    1.75014180728659
O         3.18159101632903    1.60469550210125    2.14740651790971
C         2.21033819248357    1.91765761847989    1.21193235672771
O         1.16591840815166    2.42642725240071    1.62042584790871
C         3.76240685396089   -0.67733909529957    1.85496580096756
C         3.84571557415126   -1.05586750945552    3.46318862269106
C         5.15240392654000   -1.83447004638965    3.25745008927039
C         5.00610303964855   -1.73550510762214    1.76967006993246
C         2.44520131032547   -0.99520996181798    1.05954182799218
N         2.71189331029401   -0.82606904844381   -0.36171648232390
C         2.46180636772875   -2.06375671256346   -1.09597543787588
H         2.11861869650833    1.36868119565773   -2.79509016803081
H         2.10209333654842   -0.41205114992315   -2.98346643319901
H         3.62157778150062    0.39597439691445   -2.56622401473174
H         1.06097606859686    0.44101201856695   -0.87633832037159
H         1.89490670834348    2.47247814662511   -0.77402460535975
H         4.11666440934742    3.15703887832484    0.09569244026005
H         4.34836583024647    2.33392149172167   -1.37172422920015
H         5.90527302353040    1.58024213602525    0.48547755595454
H         4.92241108872736    0.22091530810952   -0.19106435630454
H         5.08924639730659    0.84173236985313    2.54283249591933
H         3.07956985340846   -1.80881854272556    3.66666913057556
H         3.64068949918750   -0.18347529341855    4.09924813275821
H         5.12551171840376   -2.83498289647056    3.69362471923664
H         6.03264701464965   -1.24645897343095    3.53766339221331
H         4.57543792014769   -2.62434076490904    1.25712565577030
H         5.85069822872467   -1.52129124594471    1.11520177553332
H         1.69711840220831   -0.25892598565069    1.38679933219393
H         2.09717756245867   -2.00478864303376    1.30227684084356
H         1.40099304981359   -2.34124642502340   -1.02992148023936
H         3.12872211419302   -2.81917929731756   -0.66872515861522
H         2.75022103484981   -2.18849888306464   -2.14163267383147
