37
 energy: -49.574133313877 gnorm: 0.150608612986 xtb: 6.4.1 (79825abcba525fcdf90b791dcacef51065a7a4e7)
C         2.31399583804812    0.37157282492159   -2.33847523555865
C         2.20686455417629    0.34001298977773   -0.80738367994988
C         2.88457717376041    1.66569870918285   -0.35795617744644
C         4.41595237550160    1.47713212065396   -0.32310677827525
C         5.02078083295718    1.75005560900369    1.06473251296057
C         4.15189629877486    1.04943813658543    2.09947794790141
O         2.87036321889069    1.75844152969740    2.14131635682782
C         2.28414386612562    2.12743293107162    0.94274159647799
O         1.33305847813713    2.89886232388557    1.07258549964197
C         3.82440529298624   -0.49082065353939    1.97200879330111
C         4.00492602190219   -1.44434482582782    3.31171346730443
C         4.94991613111104   -2.38753639748058    2.55450276222407
C         5.00083075191968   -1.45959768881497    1.37933262794320
C         2.51202316123520   -0.86442143525014    1.19300482216995
N         2.69838415058422   -0.91407266500901   -0.25008657873456
C         2.07701498082511   -2.12489394671331   -0.78052285115544
H         2.44103228661032    1.36849991866296   -2.77207415101865
H         1.47552798470626   -0.23853475282974   -2.70150949712786
H         3.12007995111235   -0.23775976735961   -2.75448811917390
H         1.13419021912079    0.48591194944588   -0.65070544216265
H         2.64223045472685    2.51020219796194   -1.01750539876121
H         4.73894496057756    2.04891241389133   -1.20597568583317
H         4.58370376997296    0.43562593449788   -0.60294211515415
H         4.98738910279158    2.81414912576451    1.34575784390317
H         6.06092351157282    1.41715406901967    1.01106864851187
H         4.61185843358001    1.18391319450100    3.08517921355098
H         3.06476623474359   -1.88382421856155    3.65562663026683
H         4.52391234815753   -0.92370157479009    4.12857291436357
H         4.36174377085107   -3.26100649544273    2.26623080090986
H         5.90200834850087   -2.65501417573241    3.02469469637132
H         4.88165805140182   -1.98950829552059    0.40815002626865
H         5.88189769658774   -0.82115144778986    1.31879505579275
H         1.68515406028555   -0.24896551104296    1.57555035581154
H         2.29708222391823   -1.89018427059617    1.51065389376208
H         2.46673963050973   -2.97223636147385   -0.20016598154581
H         2.32974119982155   -2.20139299963931   -1.84271871340024
H         1.00374655925679   -1.97091814808353   -0.65195751672625
