37
 energy: -49.577326115897 gnorm: 0.138708522024 xtb: 6.4.1 (79825abcba525fcdf90b791dcacef51065a7a4e7)
C         2.05209543636848    0.54392246938104   -2.47295951889776
C         2.05169660940500    0.39522420243154   -0.94501871452923
C         2.46281710086629    1.73683536757674   -0.27436122106412
C         3.96843842112043    1.99956105024781   -0.48874758770615
C         4.90016647344371    1.02395500929413    0.25049410939818
C         4.41587037562795    0.73594413004679    1.66436479985903
O         3.37054907641472    1.70038313031266    2.01639336348710
C         2.27681341296515    1.94699454507591    1.20441161338342
O         1.43831550800983    2.63487679824509    1.78773437126820
C         3.82084655061828   -0.68876558415969    1.99909571962789
C         3.67682420586302   -1.03799330334502    3.60965532489434
C         4.76296895609933   -2.10863641978325    3.43645717787741
C         5.06160389575251   -1.75372083406388    2.01183810803047
C         2.63934314342771   -0.99779272684366    1.01049899972675
N         2.78681738751738   -0.74701116265689   -0.41605921623258
C         2.85697491346877   -1.94802285501062   -1.24443065592925
H         1.22302383492201   -0.05095152578153   -2.86890788891840
H         2.93037688955955    0.17848700887437   -3.02262493188940
H         1.86089311884625    1.60769649748819   -2.63405269790124
H         0.98079030511172    0.34335675658835   -0.72837558416068
H         1.80629355807418    2.52118732105894   -0.67522540821365
H         4.17984628319090    3.04073307556151   -0.20242267113310
H         4.23851565474034    2.01090598012217   -1.54615624002654
H         5.94414892599404    1.37372732264345    0.26254492433676
H         4.90295123861728    0.08074316236778   -0.30262767329416
H         5.20186817857667    1.05336490994178    2.35913612988632
H         2.67689304798001   -1.40575163417131    3.85503322590093
H         3.88705814715288   -0.17535431742110    4.25721321842281
H         4.33600298563813   -3.11180254283448    3.49438170926548
H         5.62077042661684   -2.10559451855267    4.11709789991235
H         4.86264461033350   -2.60173425551749    1.31938487632611
H         6.04010683076694   -1.33353762041084    1.78046086592575
H         1.83827702666497   -0.32580728995307    1.35045228411346
H         2.34650979905198   -2.04451074457441    1.14436435639749
H         1.94886876503301   -2.33010536277223   -1.73027499863887
H         3.15608470723441   -2.77238038119136   -0.58948738701607
H         3.58554492544686   -1.79226311576127   -2.04259562824479
