37
 energy: -49.578908061390 gnorm: 0.142433443142 xtb: 6.4.1 (79825abcba525fcdf90b791dcacef51065a7a4e7)
C         2.25794271556282    0.48825603368343   -2.35473118898491
C         2.13883261767879    0.43377320486735   -0.82516952130455
C         2.88983214853998    1.69309916799195   -0.30669102533291
C         4.41285735521259    1.48634341680682   -0.44643412658409
C         5.09189249657419    1.58970780343662    0.93002135341307
C         4.16554981699726    1.01488137002244    1.99208873307074
O         2.94067034084674    1.79992822903349    2.16568308830983
C         2.21986713901543    2.01174957083228    1.00294334345357
O         1.11001181690130    2.54271467438115    1.05607898642714
C         3.91267415493246   -0.54297820910987    1.92121320733573
C         4.00315971155998   -1.30966383275025    3.38429564918194
C         4.84780373704094   -2.39139710498709    2.69697163517314
C         5.19894994341459   -1.48464091775858    1.55715719685371
C         2.57924341198134   -0.90723720077202    1.17418614430626
N         2.59760164450984   -0.83791435346731   -0.27996851041057
C         2.07108217663142   -2.05855265265134   -0.88525344093507
H         1.87221692154371    1.43481568094186   -2.74620322984331
H         1.65986092263975   -0.31200229017617   -2.81182883132107
H         3.24224135491857    0.37814424077488   -2.81641950870662
H         1.06773033065555    0.55096505346494   -0.63683266947787
H         2.72307826713105    2.57122894187524   -0.94544333104898
H         4.77530046915922    2.35427756821300   -1.01743301425445
H         4.69476597152112    0.52939647579851   -0.88911184174629
H         5.27087810097504    2.64237601771750    1.19879457659249
H         6.06900325484754    1.10216872452464    0.87380516223671
H         4.69460743100752    1.17144608390521    2.93910575346463
H         3.00350355403068   -1.59041580527191    3.72661820250386
H         4.44498097958713   -0.68010782059829    4.16923434652796
H         4.22544235279171   -3.26970154012672    2.51463927848508
H         5.59946245107687   -2.81439675006490    3.37164554707727
H         5.24518006996869   -1.86115823377858    0.51106899832656
H         6.18451844857781   -1.06646451883719    1.76048101799531
H         1.85347247143761   -0.26504205154044    1.69349484970618
H         2.38403504517167   -1.96726570446102    1.36789519678959
H         2.57636025278341   -2.92781859243176   -0.44280643114093
H         2.13412589326582   -1.92821342295701   -1.97015890737818
H         1.00994682408230   -2.13101936334189   -0.63850856734656
