37
 energy: -49.582722643436 gnorm: 0.133115855931 xtb: 6.4.1 (79825abcba525fcdf90b791dcacef51065a7a4e7)
C         2.16723762492871    0.39447883887098   -2.35062656986916
C         2.06145386725048    0.42337832346695   -0.81938880604856
C         2.65330933130238    1.77991782215890   -0.34165481503495
C         4.17423092478223    2.03279679723022   -0.41044108771704
C         5.03095430131361    1.10015014664587    0.46282740112498
C         4.27659971498298    0.82424656538403    1.75563429160376
O         3.17982136513033    1.76108341925390    2.01288367088457
C         2.19846774351550    2.02327464103225    1.07235719055382
O         1.14683393045303    2.61452154109204    1.31937861111020
C         3.80908039753888   -0.67149107044153    1.95586044502356
C         3.83557452440960   -1.15462945515673    3.53778334249895
C         4.85751836796699   -2.23995164714634    3.17214524112419
C         5.08799587623994   -1.67873995731093    1.80225146750374
C         2.51809203048115   -0.96031485212878    1.10809783825130
N         2.74328410249225   -0.76292192424022   -0.31669442679299
C         2.58565967946589   -1.97873829657545   -1.11073191255293
H         1.52719826032385   -0.33746265135828   -2.85324090761116
H         3.23779983936462    0.19149195234295   -2.49114824820327
H         1.93197607728206    1.39186469235644   -2.73009723711033
H         1.03809539709169    0.37877178667474   -0.43570600458308
H         2.19618911895203    2.56609323764047   -0.95800907531158
H         4.38991010130004    3.08736924065673   -0.18224409837836
H         4.52112321257323    1.91321646236213   -1.43832714936175
H         6.03466930679234    1.46271719558132    0.73391145677597
H         5.16209246544418    0.10807790605381    0.02215122464185
H         4.88804889375310    1.12989854734664    2.61235038666775
H         2.82046683806191   -1.44571341225980    3.82088287286704
H         4.28383746456672   -0.40266273540602    4.20207390167648
H         4.43856965279717   -3.24655828687868    3.22891237723382
H         5.74463246997877   -2.28538840559819    3.81251113679812
H         5.00686116560866   -2.41044108107335    0.96784529712184
H         6.00007474948777   -1.08863044428987    1.71599458107630
H         1.76112626789360   -0.22717727344304    1.42170861176245
H         2.23515085383339   -1.96108209720085    1.45117091061319
H         1.52657020083309   -2.24196850681605   -1.23614280245878
H         2.97420080633055   -2.89020537322790   -0.64570906391946
H         3.00010505067424   -1.77820604492692   -2.10076450777998
