37
 energy: -49.510036236984 gnorm: 0.163969035264 xtb: 6.4.1 (79825abcba525fcdf90b791dcacef51065a7a4e7)
C         0.87634035567097    0.30239660293486   -1.18922969511721
C         2.21896332076836    0.19402064406385   -0.45279728968389
C         2.79863074311663    1.62021118651233   -0.23214302880053
C         4.30691864336282    1.84283290811950   -0.47170316115757
C         5.26322627596195    1.26198289236950    0.58399167151397
C         4.52111908122292    0.61345685347420    1.74382536626961
O         3.62344771908402    1.70597298722550    2.12769764519370
C         2.76711192479851    2.19767579712637    1.15748806744283
O         2.11637481608750    3.18631768484134    1.49756838316032
C         3.90373435983741   -0.82880410231987    1.55777341304685
C         2.92318253259908   -0.78848867819914    2.88950068050567
C         3.97779375901338   -1.67156035762908    3.57064991371180
C         4.76402195321084   -1.98267677348668    2.33382365205333
C         3.33759020593336   -1.62146662006928    0.32491555494418
N         3.20169673060196   -0.79901847813698   -0.86874288345920
C         2.98111102516737   -1.63922209284644   -2.04303001769651
H         0.42634743300830    1.25340538031874   -0.88740427571409
H         0.21888723555201   -0.54292015089008   -0.94377410504739
H         0.86349923492227    0.27584625054962   -2.28159167694617
H         1.73433908628639   -0.12669964162003    0.47388639649019
H         2.16937292403375    2.29861571879682   -0.82436355396403
H         4.25434693490439    2.91620450127684   -0.23543195052137
H         4.58859072432635    1.55140869098528   -1.48507192329690
H         5.92319429126162    2.07087070594385    0.93403164137606
H         5.73874167022291    0.46223634161986    0.00963061870976
H         5.12500559354224    0.46584921702294    2.64648187417113
H         1.90713932852195   -1.07522228516320    2.60531960407313
H         2.86686531727339    0.17274314018607    3.41915842863501
H         3.58929977410440   -2.46779971153181    4.20867246689863
H         4.32632930591682   -0.97556734466523    4.34085839901774
H         4.38259322678448   -2.99492402105972    2.07292007043834
H         5.83291250817145   -1.97113033846823    2.12193447948389
H         2.44332895562168   -2.12034061318556    0.72524186213680
H         3.98998032670097   -2.47911816359256    0.12969546907652
H         2.00911242381863   -2.12192657581032   -2.21304077140723
H         3.68886802508543   -2.47262723133698   -2.09301596846735
H         3.23321783781008   -0.96205038437356   -2.86157954337368
