37
 energy: -49.579049940091 gnorm: 0.143699969221 xtb: 6.4.1 (79825abcba525fcdf90b791dcacef51065a7a4e7)
C         1.62537200238085    0.35057776662761   -2.24477780590912
C         1.95253662887516    0.38519135833952   -0.74528466709885
C         2.57360494931552    1.72926263066425   -0.26939743386954
C         4.05378160013378    1.97077422931554   -0.63358294168786
C         4.99024630170212    1.11692961352051    0.23841811144829
C         4.46640013236299    0.78639098556145    1.62868884828447
O         3.37353685018830    1.66305679218113    2.05748976501035
C         2.31736714250689    1.92287722784766    1.20110892507217
O         1.26978385990163    2.41074742616820    1.62664165665864
C         3.95348817040310   -0.69163051025893    1.84839255755635
C         3.63649602742967   -0.82924676724041    3.46616339799342
C         4.43546659188062   -2.13863972839505    3.41029909868365
C         5.08991250719865   -1.84101341494624    2.09583855466210
C         2.69788599210464   -1.18045491854222    1.04013177807916
N         2.84826988602449   -0.68330802172279   -0.31999251868286
C         3.24689939840637   -1.60626813118209   -1.37961018525483
H         0.96762323237457    1.16592681143488   -2.56192508309805
H         1.05420905273679   -0.57371857035886   -2.40757410618591
H         2.54533150168782    0.31731799299043   -2.83358408134201
H         0.95429983712146    0.29642372631700   -0.30698292289732
H         2.03444988817537    2.50506748312307   -0.83007729979453
H         4.30054416532952    3.02103694227230   -0.41731714488592
H         4.20212900050583    1.65108498458078   -1.66652791549314
H         5.96229625448022    1.62795125867024    0.31817415475814
H         5.07882466457554    0.11464022748960   -0.18956543342059
H         5.19216826504324    1.00972949471314    2.41902816464506
H         2.57937523330090   -1.01979500520986    3.66989320510901
H         4.07357894075857    0.01106732250974    4.02339434584429
H         3.75938053955957   -2.99446632431246    3.45995745173027
H         5.22546595127510   -2.08550371449290    4.16672621973261
H         5.15814343215958   -2.62052956267399    1.30469877327833
H         6.04672546300301   -1.33154942413454    2.20769907443464
H         1.81609351652630   -0.70066861156101    1.48855873218479
H         2.55662982740529   -2.26562133712949    1.08197032882286
H         2.52363964173284   -2.38337940452239   -1.66189010462516
H         4.10759399469281   -2.17575652701659   -1.01509616054098
H         3.59668754626603   -0.96821023463862   -2.19365752121971
