37
 energy: -49.562684453982 gnorm: 0.148178060978 xtb: 6.4.1 (79825abcba525fcdf90b791dcacef51065a7a4e7)
C         0.97990261137072    0.63453625582457   -1.18311359390773
C         2.18878295087237    0.39668704682170   -0.26728032266451
C         2.95067482569307    1.75226738758440   -0.24188592805127
C         4.39737945156183    1.49061452730395   -0.71142335268378
C         5.37692662565497    1.11402211083120    0.41332910775689
C         4.57910084482246    0.69881125308837    1.64117163977785
O         3.65184782092882    1.75214292739340    2.06242871452037
C         2.69948811415786    2.21201614935447    1.16916677675350
O         1.72448968866381    2.82504972159977    1.60516460037827
C         3.98656218269453   -0.76544775291740    1.66836369095130
C         2.80120237953432   -0.95245584330899    2.80702730535408
C         3.64066824021326   -2.07212627336044    3.43759839727203
C         4.87976140659225   -1.66776021516043    2.69879963281552
C         3.58754939542143   -1.53047957422148    0.35524271549676
N         3.05580676849769   -0.68931057233814   -0.70748629155275
C         2.80879641533654   -1.53606424204908   -1.87176485107401
H         0.16280194721580    1.31392195948160   -0.92083229155916
H         0.43604429609904   -0.31069686479749   -1.31655254674185
H         1.27360798424579    0.94186084491753   -2.18979789432727
H         1.83708735313143    0.13626031987461    0.73519309091984
H         2.44479948647106    2.47136806768489   -0.90060257830955
H         4.63936263577113    2.38983357488981   -1.29756640482838
H         4.34553666510181    0.77698410247820   -1.53557590533652
H         5.99359492493022    1.99718694994785    0.64163884673168
H         5.99581262338482    0.27128325759138    0.09337379821729
H         5.27134030162867    0.72734951732202    2.49043356120093
H         1.84351569526616   -1.30030132399512    2.41059500709956
H         2.72834102915023   -0.17725330973974    3.58254507900499
H         3.24230763187902   -3.03291340035227    3.10564300016014
H         3.77386479528743   -1.95851287438977    4.51854940673370
H         5.26897184754561   -2.55686203859808    2.15454213518140
H         5.62863769931839   -1.11049280684742    3.26111155307260
H         2.97075274794004   -2.37130537285101    0.70368707324297
H         4.50881384790075   -1.92555325237124   -0.08575448299468
H         2.06688310686709   -2.33927631605363   -1.76639138632819
H         3.75439458026120   -1.83424033808893   -2.33535715137302
H         2.37845630580034   -0.89912733812034   -2.64717536554354
