37
 energy: -49.579434330255 gnorm: 0.141311650108 xtb: 6.4.1 (79825abcba525fcdf90b791dcacef51065a7a4e7)
C         2.28451593146243    0.65990314028664   -2.47356794718669
C         2.21099693437681    0.46977560561494   -0.95200265716526
C         2.73317827734695    1.76205094464080   -0.26202210728067
C         4.21914352587802    2.15295921870213   -0.40686625255307
C         5.05130130737817    1.11300198320741    0.36281223541945
C         4.51917087395876    0.89041270355195    1.77129174750142
O         3.36385886108330    1.73602184754717    2.08268000239823
C         2.31204862591575    1.76283001194157    1.18303240663262
O         1.18408352639692    1.87321521314032    1.66473354950834
C         3.96214038117163   -0.58429634503576    1.87543681473601
C         3.60804220188297   -0.96222991128496    3.44654643166201
C         4.51109463556721   -2.19811349513273    3.33221020462620
C         5.05156626946680   -1.79797316226004    1.99338029547766
C         2.70534550478384   -0.90234074333516    0.98769473484925
N         2.84827583529221   -0.74228973120061   -0.45232715315168
C         2.34090024989886   -1.93725946883622   -1.12178050961167
H         2.02333266848267    1.61745195980979   -2.93497173785151
H         1.59615851935291   -0.08944608162611   -2.88792683018540
H         3.26376920473289    0.35132049147345   -2.84768596920259
H         1.15014200841618    0.38517385570255   -0.69922970322911
H         2.13813633341522    2.51774923862812   -0.79284074299580
H         4.32987877175984    3.20830957707252   -0.11585466981402
H         4.57070373264041    2.16328159746502   -1.44005662150489
H         6.03750265760828    1.59699109026225    0.28833606195779
H         5.02851669153248    0.18285525387874   -0.21156392459231
H         5.28408860276256    0.98404602063473    2.55064363835706
H         2.54111043159614   -1.16929943201141    3.56527994266732
H         3.90659113363068   -0.15296377570672    4.12745202320421
H         3.93876771502570   -3.12744714254975    3.30431162501861
H         5.24422984201137   -2.23490055146924    4.14477644356044
H         4.84548402211495   -2.58310802572905    1.23226506676067
H         6.04794053956437   -1.37139178002525    2.10662339055791
H         1.82420234361461   -0.35450321100494    1.35142590039574
H         2.44421697876699   -1.95998666730500    1.09943964583507
H         2.83093754463620   -2.83473306230767   -0.72041638327235
H         2.38107771918940   -1.79674297202532   -2.20650332253490
H         1.27865749919962   -2.03000338001204   -0.88687287255472
