37
 energy: -49.578163639698 gnorm: 0.139195849266 xtb: 6.4.1 (79825abcba525fcdf90b791dcacef51065a7a4e7)
C         2.16362061064093    0.62679763516784   -2.44250719905703
C         2.06805095496947    0.48820127728982   -0.91660682010141
C         2.56237468226356    1.77967915828964   -0.20495308269374
C         4.06246714868293    2.06545490652229   -0.42841826797940
C         4.89083899034028    1.00776470669681    0.32091086390132
C         4.43569868388170    0.80613142524388    1.75921356269656
O         3.37020173659386    1.75364069918846    2.09641639502401
C         2.26380176568952    1.84128341135993    1.26901859865613
O         1.11195755466158    2.05554197150109    1.64832633255510
C         3.90729578445897   -0.67635450156410    1.89677007274413
C         3.59902953501998   -1.07773047505498    3.47172212697091
C         4.80653693607593   -2.02520409490679    3.45742810424702
C         5.02551213685404   -1.86622081681601    1.98384011094393
C         2.65377276559131   -0.88033051315464    0.97165092474160
N         2.83519904917458   -0.66272521959997   -0.45643901924959
C         2.84766685291923   -1.90581358863712   -1.22333295477924
H         2.11274323014738    1.66533683985591   -2.78435178408274
H         1.43082535478316   -0.05100299594409   -2.90147439324415
H         3.10748843147539    0.16014797517579   -2.73487025918280
H         0.99636213768451    0.38493767429825   -0.72351484336312
H         1.95846682395988    2.60302476802918   -0.61031781876653
H         4.20541011755910    3.11602724147784   -0.13417431015160
H         4.27752435044342    2.12471880625772   -1.49679164593111
H         5.94335487080756    1.26429753603737    0.12396800607184
H         4.68959178407053    0.10609495482342   -0.26397483243082
H         5.23426440453565    1.20435245953886    2.39558491343397
H         2.60032298267985   -1.51922285036801    3.52638967202187
H         3.60391450904011   -0.21044359025197    4.14660371881488
H         4.56423246069227   -3.04389982160500    3.76653167824415
H         5.67647575751175   -1.60412100878971    3.97220950652333
H         4.57374095012406   -2.72210338145813    1.43468542178411
H         5.95383273992114   -1.60713522854713    1.47526083927265
H         1.85118381880858   -0.24580818008461    1.37423258527250
H         2.34986656103910   -1.92392266378558    1.10524124534698
H         3.65055925236954   -2.56485384125386   -0.86595597903784
H         2.98700397471968   -1.75001541754154   -2.29771407304404
H         1.91612525688811   -2.42627449679623   -0.99204657367783
