37
 energy: -49.580276226214 gnorm: 0.151997956060 xtb: 6.4.1 (79825abcba525fcdf90b791dcacef51065a7a4e7)
C         2.05477869093684    0.52129117548679   -2.33807659010911
C         2.04799216172898    0.39491673268845   -0.80814262654577
C         2.56248853554728    1.75571427031959   -0.25837390533136
C         4.04976351163470    2.01725478199913   -0.57695128965252
C         5.01327786585483    1.29526573368009    0.38053212850657
C         4.44038550650135    0.92635886692724    1.74149700250324
O         3.26929036128493    1.72665466968272    2.10868375035097
C         2.23892075120046    1.91307127919809    1.20315817419318
O         1.17105294230782    2.21446290106726    1.73733754155094
C         3.99707034504993   -0.58873863120675    1.80352277289419
C         3.69585043057897   -0.94672723008870    3.39025384157147
C         4.45200200150814   -2.27035882468260    3.21075756955529
C         5.13409728218908   -1.75017784762395    1.98240697662209
C         2.71017577931911   -1.02962186415896    1.01720477682259
N         2.87253664017135   -0.73556536221724   -0.39943851026103
C         2.79411413870548   -2.00302037794968   -1.12121282355462
H         1.98462062000387    1.56893714412392   -2.64714888083120
H         1.19846898568984   -0.00037833192572   -2.78712902006881
H         2.90860096170397    0.04608436844541   -2.82724991926509
H         1.00421990064059    0.22959863371872   -0.52587644593814
H         1.95517110819641    2.52263614229134   -0.75829354495899
H         4.24197900005423    3.08763270265166   -0.40944385563836
H         4.27538544775525    1.91699593465878   -1.64007234285969
H         5.92287757080552    1.90748237347775    0.48154906647658
H         5.34259698501790    0.40063983028286   -0.15499888253305
H         5.18738897362466    1.06830755138032    2.53085883036945
H         2.63839255593455   -1.08128111426747    3.63314669107978
H         4.20935310987716   -0.26936988230557    4.08680074969805
H         3.81938835069179   -3.10058419033570    2.89056500943923
H         5.11441136241465   -2.58375247386081    4.02445448574137
H         5.21146669837450   -2.39502510573837    1.07886448750506
H         6.03092643239466   -1.20653694829762    2.27856473242207
H         1.89511026394115   -0.43078441927029    1.44836777694902
H         2.63428531903680   -2.11556428903926    1.13661846368920
H         3.49794418201891   -2.67445068080193   -0.61082749208642
H         3.12202893166530   -1.90779361560089   -2.16111014978727
H         1.81269313028161   -2.45016327174840   -1.29156166589301
