37
 energy: -49.575333889052 gnorm: 0.148022671977 xtb: 6.4.1 (79825abcba525fcdf90b791dcacef51065a7a4e7)
C         2.36223901049807    0.53378708703581   -2.43354960718743
C         2.19359946217910    0.36123427333670   -0.91746889671692
C         2.59006947162820    1.67368525153903   -0.18329857328584
C         4.06641623537674    2.05774842390235   -0.41734470333537
C         5.03364200153521    1.22032167628401    0.43681768327922
C         4.40311509246489    0.92608933692707    1.79047439663747
O         3.37031865999307    1.89165482576550    2.17489363784627
C         2.31514700020845    1.90189035879589    1.27884828640794
O         1.20647575351348    2.12194952278103    1.76767157940495
C         3.84765909254609   -0.54948265176140    1.89073359132534
C         3.52301047966139   -1.13670983620672    3.40280906890564
C         4.52706688965383   -2.27076811940536    3.15427890942394
C         5.05517536076541   -1.65204619244872    1.89611675023800
C         2.65135694538031   -0.88800466675094    0.92998614154610
N         2.98273288185313   -0.78518014911143   -0.48398896280661
C         2.55366620729087   -1.99505127242993   -1.18088503430905
H         2.31549689577767    1.59052048956144   -2.71486722718519
H         1.60297574901345   -0.04062728632903   -2.98183867144035
H         3.36297053973218    0.15887936715951   -2.66181510641799
H         1.15785376444001    0.08738076286932   -0.69678833223003
H         1.93012197075871    2.35004181828415   -0.74359702975849
H         4.17810616944749    3.08843924424565   -0.04867651663327
H         4.24747249785013    2.10003556241466   -1.49280456416264
H         6.02149047267703    1.67687638546008    0.60444364042111
H         5.18953522039746    0.27452371353089   -0.08926556090630
H         5.21081052809294    1.10328865617691    2.50983814509171
H         2.45405351864163   -1.22627262433047    3.61406331952458
H         3.81390130757133   -0.35313707316427    4.11630176229124
H         4.00237736888320   -3.21335293522305    2.98625440177708
H         5.17378312912620   -2.55074060578450    3.99241847010585
H         4.98741178598450   -2.36709128172298    1.04622166191133
H         6.07321123869799   -1.29263481019276    2.04438600718174
H         1.87886019984737   -0.14112334982406    1.16291680493136
H         2.26645686044372   -1.86916866134794    1.22740685980682
H         3.23566353610113   -2.82452837557192   -0.94950666692643
H         2.68461541349405   -1.74201106551290   -2.23767529843667
H         1.49493185834972   -2.23512481315688   -1.06431329440433
