37
 energy: -49.571261233768 gnorm: 0.143006372819 xtb: 6.4.1 (79825abcba525fcdf90b791dcacef51065a7a4e7)
C         2.61497785917594    0.58153217655035   -2.38189204406609
C         2.17174093054851    0.47374201581152   -0.91606914561171
C         2.52725271517079    1.84620523417153   -0.27678975128453
C         4.01139138545257    2.26502644543150   -0.33845845013664
C         4.87736840882247    1.11842688955979    0.21090104132775
C         4.41592518709351    0.89343644433950    1.64372089528600
O         3.24462074880060    1.68518856106247    2.02834768759584
C         2.15422498417869    1.76399732209374    1.17910362386903
O         1.02720901544601    1.92473415036937    1.64870433028790
C         4.07442003203803   -0.62879235683139    1.89289868241628
C         3.79267905549743   -0.91783935328140    3.49716753910802
C         4.35389301822664   -2.32232735831110    3.23556280643704
C         5.11368767255380   -1.88472286364549    2.02069582704930
C         2.74848130600468   -0.92056645772073    1.10199671533485
N         2.82810122287627   -0.69010818736378   -0.33336319070863
C         2.48406058968846   -1.83346247630456   -1.17474743706542
H         2.21468754554067    1.49759489156518   -2.82754513002743
H         2.20883372716434   -0.22658002173309   -3.00563484472771
H         3.70085336575323    0.51081916711763   -2.48188491604157
H         1.08639170886589    0.34060625617646   -0.94357759760776
H         1.89246888981745    2.67702754532393   -0.61399446155737
H         4.31236433465172    3.16896445298565    0.21201931872810
H         4.34055832405168    2.30863040115134   -1.37813690857246
H         5.93685099501396    1.39571404330867    0.09691101193835
H         4.72665193638307    0.17564547152190   -0.32206029217850
H         5.11749931406056    1.18451026880381    2.43386357147140
H         2.75084141634865   -0.92751545166835    3.82852766545676
H         4.46656231200118   -0.35837177597663    4.16090916734487
H         3.60859023213188   -3.08570206635823    3.00365706544417
H         4.99106651843464   -2.69846069828305    4.04280381739727
H         5.19626099887743   -2.53162440131984    1.11908445573770
H         6.13999882285997   -1.52999163017669    2.11239380735262
H         1.91159635343194   -0.29672857021316    1.44737975951450
H         2.49803855655055   -1.98243624215221    1.19686977968509
H         3.01954621996111   -2.70049283692198   -0.76462299953425
H         2.83473171994116   -1.69789400921411   -2.20267430110750
H         1.43458526845593   -2.12434861042845   -1.09645635655804
