37
 energy: -49.579540726432 gnorm: 0.147008351162 xtb: 6.4.1 (79825abcba525fcdf90b791dcacef51065a7a4e7)
C         2.41228071553191    0.57686013335817   -2.38932978690113
C         2.15909953755944    0.48708553411773   -0.87785557790522
C         2.65178484823040    1.80512883292809   -0.21547718165175
C         4.15621522759626    2.06016318086860   -0.44683965310275
C         4.97947607548197    0.97907059672941    0.27418949559432
C         4.39631162779464    0.83688217487030    1.67284063967902
O         3.34657846079427    1.76047882122159    2.11078223548679
C         2.28742801484543    1.94343479341009    1.23836220039349
O         1.22685788826763    2.39098548690361    1.67587284556929
C         3.86652820978761   -0.63138330747196    1.91660685001077
C         3.70238639121394   -1.08918707105112    3.49777031774818
C         4.75266820704738   -2.18133967623475    3.25262648101729
C         4.95817671393948   -1.84388322039073    1.80743556206937
C         2.58079764161891   -0.94302056632659    1.06893312394678
N         2.69773974755435   -0.76939293816660   -0.37186055740179
C         2.41570385223518   -1.95257252790758   -1.18062025965649
H         2.40991868385035    1.52397012936209   -2.93795258789310
H         1.62142384968622   -0.10291382698963   -2.73502655210144
H         3.37550971097755    0.11878386317194   -2.62698617409286
H         1.06948520616028    0.44533872885441   -0.79146913125590
H         2.11124676681338    2.64466819373435   -0.67364255765145
H         4.28943897443733    3.05758725470177   -0.00174293426381
H         4.45539927761172    1.98592384736461   -1.49381668913053
H         5.98366347857522    1.43008001349650    0.29834394245186
H         4.97450213317622    0.07128653812225   -0.33532130662672
H         5.17279117434033    1.04144583044255    2.41882250458958
H         2.66707755040255   -1.38873757014248    3.68141111011998
H         3.96018070790030   -0.26061672440556    4.17207650963284
H         4.46983287425608   -3.19621516037191    3.53903421298156
H         5.61165610545034   -1.90867484633592    3.87463780987810
H         4.50816736188186   -2.57858848068478    1.10323189209514
H         5.98512828658241   -1.54801733119882    1.59438344509616
H         1.87263170295815   -0.19663722032936    1.45655731538251
H         2.12769787378433   -1.86640365347831    1.44490412988889
H         2.45144122911478   -2.83089636716644   -0.52186489126536
H         3.18619150807328   -2.09125845787521   -1.94553703674020
H         1.39949152738627   -1.97592473314335   -1.57925527351142
