37
 energy: -49.577406481725 gnorm: 0.137466488800 xtb: 6.4.1 (79825abcba525fcdf90b791dcacef51065a7a4e7)
C         2.35040720572061    0.39130271031698   -2.40326732546646
C         2.14368202605018    0.42245498973527   -0.88240943528996
C         2.91513975974026    1.64891268697418   -0.31727528939579
C         4.43874190833163    1.42068515604176   -0.22545738234032
C         5.06047434627516    1.63999998448541    1.16441757041731
C         4.10020920867581    1.07691038779897    2.20236953985184
O         2.85658372435521    1.85071995918082    2.16525231913232
C         2.21212555947271    2.04018876481841    0.95481253172806
O         1.07955550219943    2.52372839761203    0.95400476347642
C         3.93460672804800   -0.46701691377939    1.91123349442744
C         4.14395348149385   -1.31588037754964    3.31558725250359
C         4.84903749930251   -2.44143363295090    2.54619067111244
C         5.10234052481364   -1.49669175940830    1.41129518647248
C         2.56658217998330   -0.81081548903190    1.21907529951267
N         2.62642181339479   -0.79136340433456   -0.23548624333045
C         2.01442369890468   -1.97336629872337   -0.83704914518949
H         2.02237304959170    1.30790680414067   -2.90350770489161
H         1.72015618204282   -0.38357935115672   -2.86086420863077
H         3.36052109724656    0.11263015634348   -2.71332547774332
H         1.10258047225468    0.71129836899960   -0.71169954921523
H         2.63790350685983    2.45141499193069   -1.01445056667166
H         4.99753152508318    1.95164913608149   -1.01066170954517
H         4.53935797206956    0.35291148370571   -0.42774252334626
H         5.15091434800975    2.73610866856850    1.21687344796324
H         6.05582123390838    1.18883518520098    1.12788070027856
H         4.53750766796352    1.29200675654656    3.18408197101487
H         3.27558193750691   -1.59578400897634    3.91800209848554
H         4.91044071441058   -0.90150570996694    3.98526368254373
H         4.26849823252503   -3.33577486532209    2.31140272372342
H         5.73872754197944   -2.92201223268463    2.96642899173816
H         4.89383254251682   -1.79952106424357    0.36104670798477
H         6.06813996339623   -1.03854006869250    1.62315794747748
H         1.77863660442248   -0.14175345918214    1.59369158749163
H         2.23968266893346   -1.83089929776119    1.44679367415576
H         2.22366228094939   -2.92968288625976   -0.33868546124959
H         2.47517776185357   -2.06125919208640   -1.82596938005898
H         0.96467692939465   -1.86948917533812   -1.11880072883389
