37
 energy: -49.576163691396 gnorm: 0.148220628241 xtb: 6.4.1 (79825abcba525fcdf90b791dcacef51065a7a4e7)
C         2.13706059977684    0.65563704249935   -2.45650372957658
C         2.11857684021981    0.42796577576771   -0.93843304699955
C         2.63058160120741    1.74301336954023   -0.28481003763974
C         4.13920316557656    1.99760801714817   -0.48760153380106
C         4.92641798258273    0.97977063714846    0.35543020313821
C         4.33412632735143    0.84955935770324    1.75140977065780
O         3.20256338469840    1.70647794288382    2.11475418334263
C         2.21357108073972    1.85300320874308    1.15725023118442
O         1.09612812574193    2.20343717928602    1.53809592335292
C         3.88225604695335   -0.65941971454512    1.87261775909287
C         3.71227045858027   -1.07472600394827    3.46485842400517
C         4.97965674048237   -1.92295500001765    3.29100708198564
C         4.97391944680058   -1.87424284785737    1.79358208937652
C         2.52594295673408   -0.89084306472343    1.11391513684035
N         2.81226798151402   -0.68288173740604   -0.29834493910941
C         2.81219148306577   -1.95797122486334   -1.01087370143837
H         1.29084438691889    1.23896517878039   -2.83287629580572
H         2.10991958301381   -0.30622970175230   -2.98671990410384
H         2.97425950289290    1.25130851488081   -2.82852255970786
H         1.05551662076640    0.44851663563315   -0.68163461760447
H         2.07247166184487    2.58563602569478   -0.71541845661010
H         4.48237182674922    3.01113266849329   -0.23124734371978
H         4.34219456504426    1.80863269284654   -1.54318966449664
H         6.00691103780687    1.18080092076464    0.42256322235204
H         4.83827327212453   -0.01637755042422   -0.08674550374432
H         5.04783121049199    1.05949515658476    2.55627498253325
H         2.71450750674895   -1.47640891490355    3.66091650365063
H         3.89330676379971   -0.23198356347470    4.14653767921836
H         4.95342980213831   -2.91438650906763    3.74748618743461
H         5.86376695018464   -1.48358339107127    3.76472233195261
H         4.40767608790270   -2.71272091852209    1.33041254272663
H         5.89732419171426   -1.67974400956272    1.24855801827580
H         1.79768588904388   -0.13684251918748    1.44552398182255
H         2.02007321916205   -1.80611675173967    1.43896868753469
H         1.83951356095188   -2.40761146084772   -1.25255505479435
H         3.27614721641389   -2.75361674096570   -0.41953963323332
H         3.31581625592859   -1.85913359719100   -1.97458314924621
