37
 energy: -49.569650976176 gnorm: 0.137554564564 xtb: 6.4.1 (79825abcba525fcdf90b791dcacef51065a7a4e7)
C         0.96366833136544    0.60071086733797   -1.25377149723982
C         2.16119483390052    0.31585438359585   -0.33643757981914
C         2.87458900938975    1.69400749876063   -0.23404209532490
C         4.35770789510049    1.62563549257177   -0.65542730379286
C         5.21061538267200    1.05918810767430    0.49265316237327
C         4.41726142879343    0.64639433852020    1.72420261777965
O         3.33390522728319    1.51344042642048    2.19466376909595
C         2.78951220616877    2.25489462014715    1.16012466003526
O         2.14993041396512    3.26628164291089    1.45091254025921
C         3.92350463546553   -0.85354279300967    1.67636239439244
C         2.72750088748728   -1.15369307820687    2.77912687343136
C         3.75914352718149   -1.81046115719902    3.70667948617408
C         4.77547681813855   -1.89194685808024    2.60890259065709
C         3.81156896309410   -1.40643453609587    0.20988612484163
N         3.13394817714035   -0.64956821365759   -0.83303853025487
C         2.87496160085835   -1.56251152447439   -1.94344876339143
H         0.36585473886012    1.33233761869253   -0.70118565483995
H         0.20850460385142   -0.16579388859812   -1.47569864352787
H         1.27380050663441    0.95434308693449   -2.24012174302515
H         1.74586290092886    0.13852556746879    0.65981473114797
H         2.37558237733825    2.44142738382296   -0.86592748881772
H         4.65418235635403    2.66892186705625   -0.84082110150046
H         4.39870930636046    1.06269813763929   -1.58955999633272
H         6.03602287261175    1.75510826562925    0.70894658758336
H         5.64882829703383    0.13496158305352    0.10616278024219
H         5.12565421622312    0.72458089840741    2.55686233993968
H         2.10653321668513   -1.93053615084213    2.32499823837412
H         2.12416697610267   -0.31229646253712    3.14752268058221
H         3.55117597080117   -2.79321366234482    4.13439956724210
H         3.95956159830436   -1.18353043709206    4.58183368729373
H         4.78095711397373   -2.93104147365156    2.21083805296395
H         5.78465087346321   -1.56910758897550    2.86365714249533
H         3.22160123416792   -2.32423190765293    0.34562725477145
H         4.82472198787622   -1.70293071580777   -0.08149140715056
H         2.46323442751863   -2.52226246105664   -1.60279141552461
H         3.82180014285498   -1.57990569935395   -2.49224463389096
H         2.08080670184332   -1.16752809689535   -2.58019735860691
