37
 energy: -49.580447956052 gnorm: 0.140147915675 xtb: 6.4.1 (79825abcba525fcdf90b791dcacef51065a7a4e7)
C         1.74175687225034    0.63293150312285   -2.32769321902943
C         2.06431347213360    0.43932626324336   -0.83934221537878
C         2.73137815297357    1.72205086029148   -0.26631132331925
C         4.25502172386031    1.85043073882690   -0.47586017810623
C         5.02101902916774    1.08909623166054    0.61959429249242
C         4.21240335061460    0.71525717947885    1.85365602650156
O         3.26544282855268    1.79361129780227    2.14892110726907
C         2.36566345700436    2.10261129323345    1.14328432036517
O         1.49248482217701    2.88661114244995    1.51668689173672
C         3.71060678653987   -0.78251812257916    1.88131956863302
C         3.47360055953605   -1.23464409854993    3.45485535417391
C         4.74311634467200   -2.08889017426071    3.33411588953272
C         4.99384232275262   -1.79595389249625    1.88635478504508
C         2.57651134440172   -1.16091492665563    0.86180253428661
N         2.85807874034670   -0.73582584115902   -0.50191573697802
C         2.95303248888530   -1.90427231719009   -1.37327505763058
H         1.22537689393209    1.56632433206251   -2.57292667510050
H         1.13416477898211   -0.18663742715868   -2.73535984595867
H         2.66372969568366    0.64059253244037   -2.91423558077551
H         1.13505971360258    0.25067115252665   -0.29403358283856
H         2.19446894455406    2.54804819592714   -0.75250076606145
H         4.50262084679012    2.91730973423201   -0.37013263717892
H         4.55033946094225    1.53056713085060   -1.47668892362411
H         5.78464394321140    1.77012741298323    1.02636054969690
H         5.49860564895090    0.23393950855842    0.13357160900213
H         4.85098648013298    0.80105162336781    2.74028256087685
H         2.52412133563339   -1.73049274774314    3.67381231637290
H         3.54532806827142   -0.35811990560200    4.11382126396541
H         4.63511942169695   -3.16313890457771    3.49636197676801
H         5.52651445351237   -1.80038397367205    4.04274554344657
H         4.84102964847230   -2.64330211646954    1.18147726794389
H         5.96342269963808   -1.32323009731546    1.73142426670381
H         1.68861802184679   -0.60264803371644    1.19168603977593
H         2.46980935435350   -2.24347934895892    0.98813101676265
H         3.75957704649780   -2.53393578629859   -0.97365228961991
H         3.26816356144744   -1.59181346649748   -2.37379720420638
H         2.07283566713357   -2.55031777670761   -1.37791274504805
