36
 energy: -51.076723808377 gnorm: 0.119694935296 xtb: 6.4.1 (79825abcba525fcdf90b791dcacef51065a7a4e7)
C         0.79571761339404   -0.73159411432628    0.27605155852534
C         2.28261458763903   -0.60664712920335   -0.10915581238093
C         3.19648161708337   -1.83037331944308    0.08314126329366
C         3.67219810622557   -2.04444130950814    1.51773841905240
C         4.40832692614283   -0.81410657680605    2.05314073044613
C         5.57565980467465   -0.44551281280869    1.12275605015060
C         5.48051381856086    0.94084178940382    0.45471405736486
C         4.11163985977190    1.03784991457032   -0.24940800160595
C         2.92564085217206    0.59434402574494    0.62739671340536
C         3.38796207321397    0.32285732418987    2.06178040085232
N         2.29831970845754    0.10926920642597    3.00906690856158
N         5.85087239874523    2.12033933263752    1.23772119343537
C         7.16128861537051    2.35811211970502    1.49108661229697
N         8.20998747887791    1.82143724988820    0.85488049756912
S         9.57672639739823    2.10155278418353    1.77303717350834
N         8.78572932365935    3.04981000005991    2.89700431424199
N         7.50760674880231    3.15718697188769    2.58249799011984
H         0.28425475075857    0.23181537122378    0.37896279051938
H         0.66066339832887   -1.23279234695861    1.24131919725094
H         0.24278548680700   -1.40794101350208   -0.38131469184730
H         2.31476038385779   -0.46001454356354   -1.19787145170870
H         4.00146740034313   -1.54444342587987   -0.60722333929031
H         2.83277005629612   -2.77493277120499   -0.34594882281247
H         4.30047057929684   -2.94506590382566    1.53945562451472
H         2.82992824200340   -2.17109906026175    2.21300231039184
H         4.87656303352074   -1.00261884257766    3.03287275663013
H         5.63642856186521   -1.25102067589286    0.37912306175796
H         6.49118810416918   -0.67116394643314    1.69003230530180
H         6.20979232082694    0.94453125948773   -0.36438724963194
H         4.18518414462819    0.38135353868053   -1.12779526227526
H         4.00095903646222    2.06714948973291   -0.62628683306355
H         2.08052897128870    1.29480004404221    0.69427827897050
H         3.88215540654982    1.22377263685598    2.44773651269763
H         2.11753052227253   -0.87891841437533    3.19200621262259
H         1.41066829153946    0.34839837006697    2.56602434001702
H         5.25890609629672    2.38685315257956    2.02217626573703
