36
 energy: -51.083870904544 gnorm: 0.143006787882 xtb: 6.4.1 (79825abcba525fcdf90b791dcacef51065a7a4e7)
C         1.79932758917172    0.36447363543390   -1.06065276141916
C         3.02673008264117    0.12222451963708   -0.16084302832709
C         3.33292028200388   -1.38095314891352   -0.03300978326515
C         4.52753172821181   -1.58207119097101    0.89578260013792
C         4.13858790203669   -1.03639306983438    2.27172695799411
C         5.19744216880781   -0.01685961016964    2.72286133185512
C         5.04647611105520    1.20978106521724    1.80097528568759
C         3.60072176066712    1.74718950614654    1.80002710178390
C         2.68276280257337    0.63489254109500    1.25944923802685
C         2.72277178364247   -0.46489220443491    2.32423807605914
N         1.62787198951457   -1.41989481920329    2.18475148862866
N         6.01942363572761    2.23271679567642    2.18627482618443
C         7.28576952056712    2.05704134183916    1.73524620349491
N         7.75367332417286    0.95643367702208    1.13335233983284
S         9.26721637036423    1.29868298025387    0.51569181845705
N         9.22006650573851    2.88364757943759    1.03898366700845
N         8.13086810107597    3.16853071375141    1.72929503911449
H         1.01618830861554   -0.28060827015729   -0.64724615435345
H         2.06285442441666    0.10019766468307   -2.09113456171779
H         1.37088641374503    1.36743449824192   -0.98438275288810
H         3.78770796418944    0.73192156497966   -0.66781281198866
H         3.73914999555443   -1.70487672383520   -1.00069373442802
H         2.36047003056007   -1.86172988798016    0.14529104358114
H         5.43245086333738   -1.08218778283620    0.52489107882252
H         4.61490905604784   -2.67806621672356    0.89934351745244
H         4.14587071127685   -1.89159301386705    2.96687929973056
H         6.17229196138073   -0.48785806902374    2.54023024078563
H         4.91663748025601    0.45674563845666    3.67562555120228
H         5.28288036535129    0.92558849644532    0.76843700597560
H         3.53414315458589    2.62777459301072    1.14573541087850
H         3.33221583850360    2.04181229755028    2.82708478683935
H         1.68178742168437    1.08128635859070    1.16941204162068
H         2.59946930518976    0.01638382044507    3.30301661886627
H         0.97703219387304   -1.28528164808789    2.95996316613483
H         2.00953992052678   -2.35412597489693    2.33619865750337
H         5.62362063758646    3.15700033484445    2.34709582206266
