36
 energy: -51.087891078865 gnorm: 0.126082313003 xtb: 6.4.1 (79825abcba525fcdf90b791dcacef51065a7a4e7)
C         1.63695465427795    0.22713980851238   -1.09046041167718
C         2.79496087525377    0.08487222298855   -0.08366322469473
C         3.27793962417911   -1.37627891740906   -0.12115634977380
C         4.45431783462148   -1.55180520308757    0.83567439742710
C         4.14913190955165   -1.04516259745541    2.24721242610077
C         5.14424053784885    0.02500052205344    2.72538894007202
C         5.07995069172489    1.25954010014834    1.80392770686974
C         3.62048032177526    1.72999437272355    1.63769494632071
C         2.56838465908391    0.64464662261833    1.34241108440507
C         2.75463385465779   -0.44165232308371    2.40550483381055
N         1.65362308693037   -1.38868199822254    2.25989518137453
N         6.08326905131750    2.24571960488393    2.20677053634811
C         7.30577116831616    2.13562523758058    1.63119397226880
N         7.76983991842476    1.04728331747715    1.00453657596744
S         9.33895542667184    1.34096550100539    0.51353865390241
N         9.40091932650793    2.80796851520321    1.30866938661310
N         8.21345308251464    3.19088977329814    1.74149335396713
H         0.84225863526550   -0.49548949763036   -0.87457169625692
H         2.13318748248674    0.08663131250703   -2.05751328779289
H         1.15019640230074    1.20586694483461   -1.11211770956007
H         3.54920736946098    0.70651615214034   -0.58616421636645
H         3.67753457294799   -1.50105856481594   -1.13659477992527
H         2.42135306053550   -2.05292039761347    0.00927641581873
H         5.41192889095185   -1.16209737003244    0.46495692128527
H         4.60076943968550   -2.64147607982930    0.84035245172234
H         4.15033197650820   -1.92823597987777    2.90663393599767
H         6.15364692389238   -0.40624636706563    2.75089663901400
H         4.77251999302887    0.32406585229605    3.71700208363869
H         5.50163577418813    0.86146916946504    0.87306310043993
H         3.56697454385004    2.35178094190886    0.73299664675717
H         3.36137551386075    2.34716134447659    2.51274644408486
H         1.54074058393232    1.03566384120352    1.36187980163574
H         2.71287555749825    0.01144643160711    3.40440188503825
H         1.04142256748809   -1.29382551235344    3.07160884115982
H         2.07039652827757   -2.31865708896365    2.31319378849969
H         5.85822208382662    3.01147212369785    2.83906825043040
