36
 energy: -51.094624438828 gnorm: 0.126988518049 xtb: 6.4.1 (79825abcba525fcdf90b791dcacef51065a7a4e7)
C         2.27337581175843    0.32073944938386   -1.23408868825576
C         3.33246814923056    0.01112459662227   -0.15830006674463
C         3.22586971801800   -1.51269434169512    0.03209303249199
C         3.94487368064680   -2.07983871540578    1.25339596312852
C         3.60548913897879   -1.30954448245428    2.53157035170155
C         4.88555136439341   -0.60552559577431    3.01109220851069
C         5.52859662784328    0.36509765317844    2.00030275754521
C         4.45244281666739    1.39735413228861    1.60615309687530
C         3.12707503291129    0.72616501791841    1.19997200992618
C         2.59855249519366   -0.18134719779059    2.31441718111518
N         1.26126331301646   -0.71234222723825    2.06948038052599
N         6.63844789054553    1.12078074722109    2.58224210388659
C         7.51128311207402    1.76644910029830    1.77033590400569
N         7.61051418971378    1.53689258698534    0.45503956375261
S         8.65252542421618    2.68967306589562   -0.15713804661607
N         9.02536388587927    3.36821628310340    1.32230131878667
N         8.33923188214548    2.76932431195442    2.27864468863584
H         1.26089175432092    0.14761477847241   -0.85297623156536
H         2.32945103311107   -0.29901790732732   -2.13627343321682
H         2.40841406761352    1.33304099704110   -1.62437025567323
H         4.33918105990999    0.22365841379770   -0.54455737125421
H         3.45260907770445   -1.96601342732241   -0.94230543170141
H         2.16270111080216   -1.70876074471805    0.23166118465415
H         5.01997322421402   -2.07635458858892    1.02873748130551
H         3.67716082469408   -3.13970568489002    1.37114324614615
H         3.14640815353067   -2.03204016056645    3.22576155316251
H         5.68430106772389   -1.31754728840450    3.25716094457986
H         4.67918483725171    0.00974121265329    3.89978365666428
H         5.93076262935223   -0.20642077884971    1.15507089947265
H         4.65613221646987    2.06498514940416    0.75718908369674
H         4.06110083896088    1.98108955730774    2.45459281213347
H         2.32624652281278    1.44876635556481    0.98585315499785
H         2.58954426634435    0.36594135697556    3.26585381702741
H         0.65178644935493    0.05752369612090    1.78928275330403
H         0.83726778711810   -1.16012445735518    2.88256917058114
H         6.56742827368284    1.36428015083451    3.56839003544208
