36
 energy: -51.084718574023 gnorm: 0.118240890308 xtb: 6.4.1 (79825abcba525fcdf90b791dcacef51065a7a4e7)
C         0.85433117841656   -0.73510993149212    0.67167560326026
C         2.21818499878341   -0.57473885509713   -0.02764048006376
C         3.05158883642251   -1.86894051443455   -0.01682206305000
C         3.81803816619074   -2.09320105006396    1.28412487822194
C         4.43794721847299   -0.85778495855221    1.94118249403698
C         5.65000775994740   -0.49634682057083    1.06687429316072
C         5.54781461116543    0.86212267027812    0.34477372881627
C         4.18092110295771    1.15741862630027   -0.30593116450376
C         3.00699058995143    0.63077484447580    0.54059771863942
C         3.43498797013463    0.29418701817701    1.97183125520931
N         2.39775385241163    0.03519446664794    2.96549134224397
N         5.82720972820629    1.89475682953449    1.34331528212588
C         7.10658527945312    2.27656390041849    1.57856446626266
N         8.07001215113454    1.35541092422408    1.45273394688522
S         9.45927137147924    2.02052539892344    2.09851504267448
N         8.75064515791948    3.50330157704024    2.39413971159300
N         7.47101272126545    3.53209468793107    2.06894263125347
H         0.59718517776312   -0.02810287073261    1.46814266224145
H         0.74980272496096   -1.76020579662368    1.04508315678999
H         0.04800287614503   -0.59937977069998   -0.05408017762946
H         2.08354625818652   -0.35790345201461   -1.09660775890609
H         3.80839717806500   -1.89560542600495   -0.81236679682379
H         2.48122147030450   -2.79627703470143   -0.16954736366232
H         4.64635254391060   -2.79914568214610    1.13627333034017
H         3.10760067168427   -2.52216516132181    2.00531899770391
H         4.59835773738120   -1.13675925379250    2.99526911348789
H         5.83383121118559   -1.25357470807062    0.29334946015733
H         6.60753183044262   -0.37566460973012    1.59554842672620
H         6.31622692366875    0.88791656691999   -0.43731635709683
H         4.22074818564708    0.72521120734987   -1.31566924798712
H         4.09570809283894    2.24965297135373   -0.42215687162292
H         2.33575477857174    1.50091349804550    0.58093508762319
H         3.92757571670199    1.20287712601383    2.34125945173631
H         1.90607235534886   -0.83974972691019    2.77737366084287
H         1.63282215182640    0.71049152287797    2.98123599788128
H         5.10873257874518    2.61571005309797    1.31432335947441
