36
 energy: -51.087435508900 gnorm: 0.132090705145 xtb: 6.4.1 (79825abcba525fcdf90b791dcacef51065a7a4e7)
C         1.78681043401157    0.24188567906860   -0.98394475495976
C         2.98353028853751   -0.07932364577445   -0.06767771970980
C         2.95589069433977   -1.61799637447642   -0.03081010025811
C         4.00136742702892   -1.95829493933983    1.02814013160258
C         3.85743922230446   -1.24726287525105    2.37572423937845
C         5.03828283290661   -0.36987246435380    2.82286801387508
C         5.26835274236585    0.75432264580973    1.79303053945167
C         3.97761603305665    1.58608183000073    1.64746324341610
C         2.79135294858152    0.67991501498974    1.26835997739892
C         2.61423986150705   -0.35937157093068    2.37895302849384
N         1.37135385397849   -1.07291103549611    2.10256934752401
N         6.41938895646225    1.54040362396719    2.23875746165796
C         7.52038125507368    1.95974078503146    1.56801688416055
N         7.91749808106428    1.57862904981559    0.34752537352885
S         9.39311327057967    2.33670537464789    0.15431105645027
N         9.41064202637602    3.18131249798180    1.59462414859516
N         8.35782791876760    2.80570099320624    2.29785939779838
H         0.84782506788547   -0.12921932141501   -0.55858562437481
H         1.83452889363241   -0.24898168158054   -1.96269554823919
H         1.75501228703820    1.32554888293824   -1.12526849923244
H         3.88793222188499    0.26581055913863   -0.58803889125291
H         3.11554776339653   -1.94179421180125   -1.06812677572559
H         1.99019064444031   -1.97962819157701    0.35029724971837
H         4.94933669203939   -1.65897434693851    0.56114541583375
H         4.08389414061559   -3.04835897441909    1.14562346978218
H         3.65676067286254   -2.03708783652878    3.11772252079514
H         5.97515993363805   -0.89863300089714    3.04241161817340
H         4.74784192956796    0.25649960808412    3.67973147713138
H         5.50021016062862    0.40040750847935    0.78121340036871
H         4.02361326779093    2.34616489304776    0.85492400616211
H         3.88983509781835    2.12771154679012    2.60280469774495
H         1.90502201311606    1.32328760129954    1.16928887590358
H         2.61213533442781    0.11744935051446    3.36762636951303
H         0.64714996448357   -0.41547995505922    2.39579179424019
H         1.17793705289097   -1.97553993643954    2.53759293585607
H         6.21177096693673    2.18770368686041    2.99686095017523
