36
 energy: -51.089488799253 gnorm: 0.117902206478 xtb: 6.4.1 (79825abcba525fcdf90b791dcacef51065a7a4e7)
C         1.82461329823909   -0.03647155545323   -0.84114725708996
C         3.13812940820205    0.28399456615656   -0.10166367971813
C         4.22539655089281   -0.80134086973256   -0.19930595854021
C         4.37652307092798   -1.68078950394418    1.03921377018910
C         3.92254941520313   -1.16347022064871    2.40616420011952
C         4.90424190542810   -0.20322815889813    3.09779858164291
C         5.07325760893714    1.04344159800179    2.20641752858001
C         3.79524924132520    1.83079699966319    1.85176212785378
C         2.79341270425635    0.78809083274844    1.32151216015242
C         2.61460179689957   -0.38224778294805    2.29271588827424
N         1.54695448434278   -1.34012979236538    2.02274669118513
N         6.24258080749536    1.81802766149389    2.62376609506659
C         7.32595234685535    1.90530354592618    1.81345155607871
N         7.57023910354148    0.97931230826715    0.87781718537714
S         8.81808329152463    1.55545137484916   -0.07107708204635
N         9.10628493316481    2.90371212369494    0.87089054981667
N         8.18934177622000    3.00265819680295    1.81612400418643
H         1.40518520529532    0.93559507674470   -1.12312129582452
H         1.14797492734147   -0.70260420472053   -0.29378199760523
H         2.03322142849659   -0.57100563054544   -1.77177361651227
H         3.57391823843540    1.16311170150636   -0.59671656625000
H         5.12780844391725   -0.21365248528824   -0.41526064181622
H         4.08115497161598   -1.52136285465747   -1.01744998917501
H         5.41078434880490   -2.00748555567230    1.21211804991528
H         3.82471151917433   -2.59711336470491    0.78483771922298
H         3.80343216476463   -1.96778380795874    3.15017192990802
H         5.86537270244251   -0.69107790559661    3.30697792687810
H         4.50846510639635    0.02998690422146    4.09774073932477
H         5.49734872532841    0.64762147885846    1.27568616627405
H         4.10068958070305    2.53274614413259    1.06313418597458
H         3.42379877926350    2.38283033794404    2.72984484419294
H         1.78581218693309    1.22633416638864    1.27668088204555
H         2.40959897042675    0.08678703597401    3.26370391838861
H         1.81134684803050   -1.95483205472486    1.25144642488331
H         0.72208756266052   -0.80248094131141    1.75456244992591
H         6.16529831224114    2.66040261611908    3.19056000771110
