36
 energy: -51.086610721224 gnorm: 0.122194924711 xtb: 6.4.1 (79825abcba525fcdf90b791dcacef51065a7a4e7)
C         1.11748164368153   -0.57159313059402   -0.56950425931939
C         2.57157942264767   -0.18573281790367   -0.23548244786235
C         3.42850733454775   -1.46324781686640   -0.29263926708796
C         3.56124446675174   -2.06748638908276    1.10288103041954
C         3.85195270258885   -1.14729562161709    2.29073730385761
C         5.24818071616200   -0.51241275133360    2.18296818478447
C         5.33726605086777    0.76577834442774    1.32529497838849
C         4.00539676747130    1.50659207318133    1.08794789597273
C         2.71080521049294    0.67333892911001    1.04552656555705
C         2.75012693448471   -0.09211318159807    2.37121107824736
N         1.49747373460319   -0.68946468750088    2.82323238892487
N         6.30792667526056    1.66379524956121    1.95208342049166
C         7.57706110678356    1.96128092936704    1.57963115498122
N         8.26367093542925    1.70659214436331    0.45880644701140
S         9.69502420362867    2.55431036607104    0.60731002032951
N         9.36418055470920    3.26799179497960    2.08018868219399
N         8.24643091409901    2.73034447257565    2.53363378697524
H         0.35664861472039    0.10599844006915   -0.16658293929086
H         0.83255588656734   -1.58024800626139   -0.24917070898664
H         0.82521794214062   -0.52925288338796   -1.62216692550656
H         2.99691336192623    0.42430542146681   -1.04466760050139
H         4.43812274006858   -1.21300178246750   -0.64536431429594
H         2.98974959827136   -2.18629514304847   -0.99498617562340
H         4.35438225223126   -2.82616838783056    1.06217860634160
H         2.63858847344482   -2.59636508188538    1.38188971230965
H         3.86230418720361   -1.78524505438707    3.18938638096643
H         6.00752093610460   -1.27653236537290    1.97071965459659
H         5.44920850096181   -0.29790123792863    3.24338579987359
H         5.82525413671883    0.64685751013183    0.35035232609623
H         4.20474428824915    1.96113797971736    0.10733123436262
H         3.86104669205342    2.31071318696702    1.82706752347106
H         1.84276067152460    1.34812785260028    1.02351577384461
H         3.02092063644118    0.65165281836603    3.13168494440258
H         0.83893715553803   -0.85618832857486    2.06086823687581
H         1.02654656599995    0.00540946229521    3.40355302114890
H         6.21805218061858    1.87308740440772    2.94452630034406
