36
 energy: -51.090385061448 gnorm: 0.119947749928 xtb: 6.4.1 (79825abcba525fcdf90b791dcacef51065a7a4e7)
C         1.50143319554120   -0.34294819959379   -0.85909312939257
C         2.84910892857936    0.05462511706997   -0.22619137463541
C         3.75073012150155   -1.19301310291150   -0.21546920554321
C         3.75471124662225   -1.95651968070701    1.10636365616665
C         3.82836528736509   -1.13985203995166    2.39860738591318
C         5.17542753477265   -0.40241854015566    2.47449011901700
C         5.26362216114666    0.84059085869294    1.56649160111955
C         3.92976496756669    1.61058962931154    1.48317735925152
C         2.72703549814509    0.69859312504843    1.17693918814817
C         2.64163668245306   -0.17827435189463    2.42942189510672
N         1.45380187652099   -0.99316729729379    2.66456022163274
N         6.21415171974669    1.76950366373441    2.17894134325088
C         7.44700874727110    2.03124938388810    1.67946831277519
N         7.79985772250966    1.66407659635621    0.44123199485630
S         9.40509176411874    2.10164870044868    0.29560921911695
N         9.46055465740740    3.02858198483745    1.68337317734186
N         8.32651669835020    2.88732805871202    2.34522405902795
H         0.87828009081392    0.53498028346816   -1.06223002889712
H         0.96436508896723   -1.09423269977221   -0.26891487914706
H         1.71225047007792   -0.85294526964844   -1.80289846644986
H         3.26810553841577    0.81775048822509   -0.89695042339742
H         4.75654676827765   -0.84799362351555   -0.49052504999560
H         3.23812499528379   -1.95625772797739   -0.81820512411128
H         4.66341453908085   -2.55502768020281    1.25592668708683
H         2.86898446234452   -2.60706535993159    1.13999346073172
H         3.76466015793401   -1.88775225463863    3.20560409418883
H         6.00341345494444   -1.09289190173256    2.26661604941413
H         5.30835268300376    0.00722450755607    3.48712842798126
H         5.57037946514294    0.69644628341163    0.52346236683091
H         4.09489454375796    2.36446252671082    0.70063770598932
H         3.71410599695390    2.08876646737874    2.45198262380226
H         1.85719950598032    1.36980448386782    1.13017903762217
H         2.74504025529183    0.45795374658428    3.31788071062402
H         1.29721337348045   -1.53187199678284    1.81136412473218
H         0.55595987206744   -0.57137417240335    2.90406970703745
H         6.01022180633003    2.12991552228648    3.10917752617490
