36
 energy: -51.091703332405 gnorm: 0.120590302999 xtb: 6.4.1 (79825abcba525fcdf90b791dcacef51065a7a4e7)
C         1.73542012682795    0.26691450807894   -1.04256374277549
C         2.96726444449817    0.16685564370918   -0.12201665637380
C         3.46793229650967   -1.28856025852660   -0.14909462102733
C         4.56152134733370   -1.56028130891377    0.88067767923190
C         4.26660875952961   -1.02208123420889    2.28268771422943
C         5.19232481264678    0.11656600890476    2.74168161663417
C         4.98679187551093    1.31211390733669    1.78998130076888
C         3.51579227876852    1.77457986462998    1.82603503968218
C         2.63795262964347    0.61293071947556    1.32399267779985
C         2.83193737371784   -0.50214678739691    2.35543568874668
N         1.78668751498431   -1.51602918863593    2.25650456003475
N         5.97520593401685    2.31645116159719    2.18472744969024
C         7.17292422721790    2.14472053467515    1.57325373938410
N         7.41571846709554    1.52485072242031    0.41163425890389
S         9.06647403065419    1.46920799846811    0.16392148162426
N         9.41983107189357    2.30283801529462    1.56690759898140
N         8.31503275255526    2.63449533520692    2.20992039025039
H         1.70106254935790    1.18438928335680   -1.64039517977493
H         0.86073040348560    0.24412381154777   -0.38257934140992
H         1.59261813511519   -0.54173368017830   -1.76437061773332
H         3.80136524118633    0.74813913675754   -0.53941526940435
H         3.87675047501700   -1.51820758813607   -1.14231721352435
H         2.65464363017462   -2.00086087483305    0.05037056283306
H         5.60156130180118   -1.32214260274058    0.62004485253509
H         4.58047105729620   -2.65371280131412    0.99426065116284
H         4.41081535081146   -1.79708069510495    3.05290658550483
H         6.23534963237708   -0.20249632814613    2.61588707039501
H         5.14312713985208    0.45988175824502    3.78601239547291
H         5.30259148122378    1.09461432292591    0.76248323827253
H         3.40059677822486    2.76439112621379    1.36239280987226
H         3.24510175205497    2.00631965455599    2.86851710593138
H         1.57404232022551    0.89113968986792    1.31946119690644
H         2.72327478600783   -0.06708080813653    3.35730776133707
H         1.02508756967980   -1.11796021268640    2.80802329978407
H         2.09987655886353   -2.34170721400605    2.76793680741589
H         5.95173889027194    2.53715359006771    3.17848961049753
