36
 energy: -51.089803760788 gnorm: 0.137826844278 xtb: 6.4.1 (79825abcba525fcdf90b791dcacef51065a7a4e7)
C         1.19716041120019    0.29652728944142   -0.78742655527750
C         2.58854202700099    0.05492122518230   -0.17054503978273
C         2.81647060891642   -1.46124094492009   -0.03293054557219
C         4.11102832279577   -1.79040895391400    0.70596662865216
C         4.18315875512826   -1.05659351938339    2.04707696595844
C         5.36908516223943   -0.08873564605711    2.19189679713250
C         5.14122281405323    1.13344157444195    1.27993539352317
C         3.71588545678777    1.68400609774223    1.49042654641847
C         2.61808366117038    0.62684563389726    1.26834408803867
C         2.80736666877320   -0.45722089948825    2.33317938708233
N         1.80555579463833   -1.51090478257478    2.46130956987208
N         6.10089268956511    2.17016157901231    1.66167550801789
C         7.44406047511138    2.01297192803820    1.56621701041379
N         8.16802076079357    1.15710672794832    0.83414890583095
S         9.74349901816402    1.69772990106685    0.95681314685557
N         9.40108128890144    2.99561656451272    1.94999518439750
N         8.09878386755569    3.10449639749154    2.14027910665625
H         0.49812132417444    0.11210580743639    0.03578416968509
H         0.98105529897425   -0.35560609370384   -1.64135954858227
H         1.08654677886268    1.30933674085561   -1.18402596943767
H         3.35343192419515    0.45852404844201   -0.84869282047051
H         2.90761127179531   -1.75941382082802   -1.08609132061848
H         1.91518743430150   -1.95057437583265    0.36309772859241
H         4.99957712157474   -1.49539715347581    0.13170913584874
H         4.18882504824391   -2.88709101204415    0.71538562289952
H         4.32205208282993   -1.85171383571515    2.79750958016875
H         6.29033277882650   -0.67201853735247    2.06301822676215
H         5.42081628768595    0.37524270020862    3.18837101144599
H         5.35736316867880    0.81239501381472    0.25377743982308
H         3.65848186650441    2.54279558928835    0.80694584113934
H         3.61224611554943    2.08007346375186    2.51323398410350
H         1.68613358288246    1.19667660179633    1.39518095543265
H         2.92229597851594    0.14968648842375    3.24053392370884
H         0.97640082217561   -1.08638957229741    2.87958598847609
H         2.16422192924014   -2.32340864886921    2.96389347360725
H         5.73214998516097    2.79458481072704    2.37648173031394
