36
 energy: -51.081388962290 gnorm: 0.133870313733 xtb: 6.4.1 (79825abcba525fcdf90b791dcacef51065a7a4e7)
C         2.26326414535797    0.11765847078801   -1.34513477893891
C         3.26950279611539   -0.32497707906855   -0.26512707634337
C         2.94176868374983   -1.75988004462225    0.18573956986119
C         3.70658701394081   -2.15004608694427    1.44788998042434
C         3.60141907020488   -1.15957217921527    2.60985640323796
C         4.99489124439748   -0.59986084434706    2.94016174625915
C         5.64381145420720    0.29976684833440    1.86923476627583
C         4.59407200805795    1.28683863749394    1.31900681263274
C         3.24349839370578    0.65437535325444    0.93427474809301
C         2.74928174342713    0.05778427622196    2.25515760256940
N         1.30858751646137   -0.16984667974743    2.30878964138234
N         6.63419330732765    1.09499456062584    2.59603381478040
C         7.41147010428426    1.83662389708311    1.76914365094646
N         7.63002572115601    1.54161575386358    0.48160681464768
S         8.59201024095394    2.76485391452307   -0.12479722433227
N         8.92205403518920    3.50100204231643    1.33716285726859
N         8.21756759205610    2.86712177199746    2.25691065613029
H         2.58815059696297    1.10517993732545   -1.69095694594828
H         1.25136717692732    0.24686048252603   -0.94444500974221
H         2.21158205540958   -0.62482979483912   -2.14597782969922
H         4.34185217763411   -0.32840545204289   -0.50573310658120
H         3.11025117169036   -2.48378199620394   -0.62292655959598
H         1.84825611637939   -1.78290402486869    0.29663195312364
H         4.75439058416595   -2.23301209478664    1.12922570675782
H         3.43479553898182   -3.12033573000524    1.88779904876408
H         3.09425325691210   -1.61079365540478    3.47809530853813
H         5.67275645561959   -1.39717548884016    3.27229712115085
H         4.92287276646140    0.12395897948593    3.76588027198681
H         6.05377061403564   -0.28121101616048    1.03425817163593
H         5.07050065743256    1.94145835487381    0.57573754440969
H         4.32727858324356    2.02001992070537    2.09683199521226
H         2.63355587798773    1.53302853150440    0.67880538732851
H         2.91847521893799    0.77556733855632    3.06817582040681
H         0.83395851265765    0.06243424260116    3.18253970537245
H         1.15727193821444   -1.17584181678719    2.22834155903516
H         6.80716616083243    1.00398096899258    3.59534377957360
