36
 energy: -51.086486452931 gnorm: 0.133951645109 xtb: 6.4.1 (79825abcba525fcdf90b791dcacef51065a7a4e7)
C         1.28665628894991    0.30957086469845   -0.76817889621295
C         2.62414448435622    0.04257378969332   -0.05075504162144
C         2.97692722778448   -1.44612261177914   -0.22094395098736
C         4.17317810640854   -1.82611746855518    0.64784142273962
C         4.18643735425645   -1.17226160214741    2.03151823472390
C         5.29831429951738   -0.12266640715122    2.19345241179485
C         5.16205717728639    1.12435181660954    1.29696395722022
C         3.73482899556380    1.68983521261234    1.44617075364499
C         2.65002947721172    0.59775310538614    1.39474766110808
C         2.88547513000780   -0.48834530109148    2.44824570697117
N         1.71816268632762   -1.36078011292767    2.52906195377141
N         6.02445121605695    2.24303976664058    1.67944787913663
C         7.36482818988897    2.13956167435318    1.50451224613627
N         7.98975880046104    1.23878953685184    0.73599500726906
S         9.60641255618261    1.56130886195645    1.00406886571687
N         9.45168195577152    2.94295001994965    1.92889122974429
N         8.15424227688106    3.13628293073692    2.08158054011812
H         0.66343594542958   -0.52037755761732   -0.41728739285100
H         1.44338553560943    0.16050341061875   -1.84260700782205
H         0.90458374286089    1.31019045862583   -0.54888353819161
H         3.32744486216287    0.67029843336207   -0.61570332885830
H         3.24892061740977   -1.73179873221793   -1.24601470207286
H         2.09481022326539   -1.94849434909163    0.20106220079459
H         5.11284481895581   -1.46042123610664    0.21239298999316
H         4.32398579436653   -2.91516781994048    0.65672714740574
H         4.57407639322796   -1.95358962408418    2.70525355374489
H         6.25708367669409   -0.58442372893160    1.92314285375184
H         5.36713139771652    0.17359466856977    3.25099978717052
H         5.40987474442510    0.76338593578342    0.29144032102488
H         3.56859746325081    2.47321049431036    0.69340871289852
H         3.70404373084039    2.25532467936758    2.39116782381571
H         1.63761909260003    0.95310170147975    1.63574240897106
H         3.00735342145151   -0.03545046038644    3.44065163248674
H         0.88143436962011   -0.84665702625807    2.80875727326325
H         1.76639336472483   -2.03549481879170    3.29314858495479
H         5.65189167784824    3.14128395625414    1.98140855700600
