36
 energy: -51.094139680934 gnorm: 0.115307062132 xtb: 6.4.1 (79825abcba525fcdf90b791dcacef51065a7a4e7)
C         1.62983245253099   -0.30088221745487   -0.78198784867620
C         2.95928973858282    0.10524743296037   -0.11681033962238
C         4.04513087001510   -0.98208279533192   -0.20790872674036
C         4.04761230343569   -1.84580951341212    1.05072953932075
C         3.87145957061639   -1.14510723717308    2.39989645820333
C         5.00040050956809   -0.22765632013081    2.89781138893543
C         5.19636725985663    0.97426638459195    1.95214185738546
C         3.83046561339929    1.67105070792734    1.78535245956400
C         2.72558799982471    0.72222935422551    1.28429242966346
C         2.55997979040397   -0.36304774911157    2.35183637515012
N         1.40168137571082   -1.23619778431492    2.18983046642216
N         6.30337288224083    1.83258356974299    2.37559234974876
C         7.41638477227593    2.02231924614359    1.62517544294464
N         7.78179620895548    1.30484432076603    0.55547843814190
S         9.28507866977252    1.85212012722113    0.07580906591387
N         9.30424695333066    3.10567213825394    1.17871893820292
N         8.31143375614340    3.00872020421424    2.04414579438025
H         0.70718235837033   -0.02945364479805   -0.25721537138722
H         1.55190048604613   -1.36030580765793   -1.05167134612046
H         1.55524571041130    0.23103995123208   -1.73425098489936
H         3.33477819431647    0.93885551055216   -0.72668099046405
H         5.00036792718885   -0.45945899574997   -0.35194978171912
H         3.85983958749218   -1.67336675118595   -1.04240893369784
H         5.02587336724430   -2.33624565107296    1.14453941359040
H         3.22429144583982   -2.57029197773423    0.97249580117117
H         3.78842679716290   -1.94957325293429    3.14862656987717
H         5.94199132720797   -0.77922559951928    3.01907086855917
H         4.62735598618281    0.10910507472392    3.87676104296524
H         5.58820902524831    0.56438413060001    1.01339573645777
H         3.88167857606961    2.48619347530653    1.04990705604580
H         3.42064876697083    2.06451542217992    2.72927046467404
H         1.73100338700722    1.18543176226990    1.20965422867757
H         2.51250940736720    0.16721699935084    3.31173399950771
H         1.06681479042335   -1.22451311587405    1.22526106147033
H         0.57715604574917   -0.96171811521069    2.72481962882746
H         6.12966422636249    2.43524838507288    3.17774190885584
