36
 energy: -51.088178277342 gnorm: 0.120380118032 xtb: 6.4.1 (79825abcba525fcdf90b791dcacef51065a7a4e7)
C         2.47697708056260    0.39133063347977   -1.34162762369823
C         3.31084809809288   -0.23300798338323   -0.20596944365110
C         3.03380958930212   -1.71336900130507    0.11249218414075
C         3.73394621051702   -2.27294913122109    1.34816166184024
C         3.64859743269139   -1.34139408858210    2.55943602911298
C         5.01068001250240   -0.70222132678022    2.87618877752754
C         5.48052457279518    0.37703231808281    1.88031245530478
C         4.41196974497388    1.36639828143212    1.37202122753867
C         3.11176181905972    0.59032597683370    1.09050963150781
C         2.69210633580440   -0.16822066295599    2.35280863830399
N         1.27548242953196   -0.51758655643215    2.31522836472300
N         6.48441637015561    1.22448215720545    2.52491324768980
C         7.37881728620089    1.90975715322356    1.77101287009911
N         7.29752007933796    1.97412348944535    0.43617386084468
S         8.58211326565000    2.91309675394004   -0.07137044129883
N         9.17571522956583    3.24794344748728    1.45299324559045
N         8.42698099939657    2.62954038235566    2.34798824719156
H         1.46726895486149    0.43307066329770   -0.91843724670671
H         2.52535370499867   -0.26772695630042   -2.21597522183703
H         2.94119747640254    1.36490203639085   -1.52042249168031
H         4.32674322713496   -0.06546263003549   -0.59031544100759
H         3.44690759765404   -2.37164632132024   -0.66364072981663
H         1.95606619767616   -1.92988474952172    0.09881493960046
H         4.80000257663712   -2.32596121604708    1.08924827677382
H         3.39739735536365   -3.31227651880128    1.47220207021581
H         3.26063607185942   -1.90172421286489    3.42556125310447
H         5.75867902004260   -1.50510671519003    2.83879449967935
H         4.95819364609362   -0.15003335184949    3.82658158642624
H         5.96431695691805   -0.23108964376140    1.10641304057666
H         4.92123563521761    1.76842610670374    0.48490098654246
H         4.20556958166586    2.12616511661426    2.14266956070964
H         2.26824823317986    1.25358676652473    0.84989411044899
H         2.86950135322852    0.52177406036429    3.18783909414143
H         0.71746824444514    0.30836733333075    2.09367332436909
H         1.00139872659407   -0.89893893966199    3.22123222528164
H         6.89777346989081    0.90245703052176    3.39798782183980
