36
 energy: -51.098834996144 gnorm: 0.118208412060 xtb: 6.4.1 (79825abcba525fcdf90b791dcacef51065a7a4e7)
C         2.06946621300411    0.34287780246982   -1.22273790062070
C         3.14360212641643    0.05086640157439   -0.15698907590576
C         3.31678071583166   -1.47725414911853   -0.08995348499038
C         4.24738695833933   -1.84161718507662    1.06391478037082
C         3.88332262298050   -1.15701445995483    2.38339999034860
C         4.98385119390363   -0.23774441960804    2.93830778957231
C         5.18568499349881    0.92474283429430    1.94573608841239
C         3.82663477746169    1.61592045482752    1.71277583668814
C         2.75578609191223    0.61966051603365    1.23025433750556
C         2.55920165809682   -0.39540200774006    2.35981412714567
N         1.36813823741496   -1.23180530523966    2.24986113963600
N         6.30151707178381    1.71722134094771    2.46378702331527
C         7.40797623877859    2.06205226737075    1.76039498505884
N         7.41578512479093    1.89259904255738    0.43232417144352
S         8.97817191237503    2.18109001394411   -0.08262451965205
N         9.55522199454708    2.59734453337343    1.42797656198628
N         8.61091248222352    2.46741139501851    2.34199969052159
H         1.19346701087579   -0.30812276476112   -1.12699604805471
H         2.51539906443058    0.11971455812496   -2.19871075114262
H         1.76562072656510    1.39290668815725   -1.20208033342128
H         4.06422790754569    0.54943043483642   -0.49123201453159
H         3.67226183570408   -1.94826661343443   -1.01631290187476
H         2.35644209955510   -1.94117231804092    0.17674236079080
H         5.29204438342707   -1.65101448398771    0.78340788930705
H         4.26938815736723   -2.92797959894499    1.23179950775189
H         3.76083963886322   -2.01662296075997    3.06216945525906
H         5.95253675563748   -0.74459688466570    3.03967195500296
H         4.67304146372683    0.17011154934226    3.91194207763801
H         5.43622029974528    0.58882136854316    0.93223889641394
H         4.06641102017908    2.41243232585586    0.99441891207810
H         3.55915554649233    2.22677175421136    2.58973713228584
H         1.80733767280331    1.13953253468157    1.03149663550743
H         2.54233715046410    0.17026726397847    3.30033074468609
H         0.52580895274003   -0.67945230898927    2.08236827902035
H         1.24631172071804   -1.79783379377426    3.09019713293781
H         6.47259918518422    1.82241273387199    3.46203006879865
