36
 energy: -51.093039192814 gnorm: 0.120274472740 xtb: 6.4.1 (79825abcba525fcdf90b791dcacef51065a7a4e7)
C         1.66334655021038   -0.62693079719690   -0.68228467715136
C         3.09934895851190   -0.43586073067594   -0.15669130378783
C         3.68850488551475   -1.78814306674436    0.28360934245254
C         3.25453527082686   -2.20671820695806    1.68598785893086
C         3.50114512709377   -1.02174443755311    2.62262309159776
C         5.00357276042587   -0.69488857821652    2.61820519657690
C         5.59804995589946    0.30440853511533    1.60562724388971
C         4.60366396998856    1.29967610312213    0.97344583159872
C         3.17322520766588    0.74360260413241    0.84419864000054
C         2.77109760184857    0.26518566774604    2.24216613818038
N         1.34367300432153    0.06290698375247    2.46983793637729
N         6.69281919212662    0.97826247432053    2.30482773623392
C         7.47411440394831    1.89665696524090    1.68511009282367
N         7.60443813644376    1.98638081687343    0.35563169599447
S         8.86825490497704    3.03060165101122    0.03653658338519
N         9.16644509944937    3.39181178818739    1.63927801485297
N         8.37642506461087    2.67253043544091    2.41551511623484
H         1.36952799800456    0.35690558792876   -1.06448809108087
H         0.84893961422490   -0.82925499048784    0.02268850266245
H         1.56286795525475   -1.32726972979740   -1.51579465401897
H         3.65731143737151   -0.14807649205124   -1.05874136561319
H         4.77841638776992   -1.80072111919319    0.14834663455681
H         3.38841932925081   -2.54090597423213   -0.45928608887944
H         3.76730930399499   -3.11240935305565    2.03685668115395
H         2.18491579495470   -2.40866559138732    1.53112012202734
H         3.15394132444608   -1.35792543866787    3.61312226990121
H         5.56663730198297   -1.60874779088301    2.38723884734714
H         5.22915990659684   -0.35853232524760    3.64138053402814
H         6.04452030613946   -0.34270921949605    0.84097665065034
H         4.92588858055364    1.54716358634731   -0.04776995213534
H         4.57571630112389    2.21376246065937    1.58778333972824
H         2.51428953848017    1.49152152074109    0.37971297377343
H         3.11275114329214    1.08865859507589    2.88248072617914
H         0.99724291125378   -0.61509029895062    1.78941735224290
H         0.74050371072186    0.87926347708115    2.36427570063038
H         6.51758860095574    1.18880279618629    3.28553692041032
