36
 energy: -51.080565385437 gnorm: 0.124677081769 xtb: 6.4.1 (79825abcba525fcdf90b791dcacef51065a7a4e7)
C         1.29023220271080   -0.42990440015997   -0.63561035989448
C         2.71345654791494   -0.00773551187946   -0.22201032345659
C         3.73491783733953   -1.15736699096281   -0.28984255044217
C         3.66143708484527   -2.04126566831689    0.95254386450483
C         3.81235451988464   -1.22520957688457    2.23844480236825
C         5.14269360608779   -0.46026620535160    2.33437515789270
C         5.41897100150142    0.83036561827267    1.53734801591946
C         4.06541904768337    1.52867902099581    1.29389396056439
C         2.76472400056354    0.71736039718362    1.14546170233318
C         2.68383928813698   -0.20344218694876    2.36631501187930
N         1.40321336649828   -0.81539412439920    2.70661515489991
N         6.29703997698257    1.73901300364875    2.27547736317122
C         7.53072938130629    2.08264784058327    1.83067837307210
N         8.05912379281865    1.34184664656984    0.84855801943897
S         9.43911995948132    2.15237834988727    0.37095922606738
N         9.27500264795596    3.41285450056391    1.45374989477196
N         8.29037996861186    3.15780950761966    2.29607500184512
H         0.72787954116733    0.43840738599572   -0.99635535394856
H         0.61900656412085   -0.71033983262688    0.18414145454903
H         1.23718258138090   -1.25805801308499   -1.34740863655941
H         2.99584723129933    0.74594500734794   -0.97038015052211
H         4.76209258071301   -0.77205302446199   -0.34281892213436
H         3.60060271861504   -1.80148619944409   -1.17056206328000
H         4.52041553547313   -2.72417711416591    0.90660274841290
H         2.73136902224312   -2.62308768114224    1.02540768005065
H         3.72798284537310   -1.94321446167100    3.07031449760889
H         5.92210363446047   -1.19567079306708    2.09515582299204
H         5.17442693842077   -0.31748724382936    3.42502635483843
H         6.00248714252568    0.61057179608823    0.63513558123010
H         3.95831135064116    2.36909656033876    0.59376059605654
H         3.83131000305169    2.07770108496302    2.21991408337835
H         1.97864009034040    1.47974319244644    1.24631030309581
H         3.01393493376259    0.35779828468782    3.24999119104876
H         1.49174460425371   -1.82255438838544    2.56358815985154
H         0.60640411087281   -0.39975625963871    2.22315399979100
H         6.00265199773059    2.03905056714633    3.20291288876826
