36
 energy: -51.085220278206 gnorm: 0.127290853620 xtb: 6.4.1 (79825abcba525fcdf90b791dcacef51065a7a4e7)
C         2.43852758431370    0.45306965982163   -1.23838121307125
C         3.31770236662862    0.02536517926063   -0.04717188637489
C         3.32241515734005   -1.51293445151193    0.00982738177973
C         4.11956384806479   -2.02992098110378    1.20459897326153
C         3.71487057971526   -1.26854069639860    2.46903094353524
C         4.92804358296139   -0.52660145726453    3.05373640673953
C         5.31649643945875    0.66568437565027    2.15659048146028
C         4.12388454326896    1.54713204063098    1.73263150518058
C         2.89097110168714    0.76272242698876    1.24610954376195
C         2.56174993770463   -0.27749128245403    2.32057283542242
N         1.34272228604596   -1.03255270190941    2.04827533725338
N         6.47372444550570    1.39493479385553    2.67668400075749
C         7.42789503047894    1.76632168607787    1.78811726081231
N         7.32106198809641    1.70435582453530    0.45496521787617
S         8.55809966149489    2.57188736906396   -0.25677804666975
N         9.28161479409850    2.94901608348896    1.20009189804717
N         8.58046588888462    2.44022102383785    2.19686627199354
H         1.36523200149093    0.30119968788731   -1.07927457500679
H         2.68614984240826   -0.10148247306755   -2.15070575630926
H         2.50638299335494    1.52201643345037   -1.45760231034353
H         4.33920824357145    0.40598826873889   -0.18677136046410
H         3.83927525445485   -1.67567649595392   -0.94554268401098
H         2.33727399377789   -1.99541706381374   -0.06300365979945
H         5.14893279498305   -1.76299197348773    0.92987899523344
H         4.13369342674919   -3.12911543400811    1.18399618951365
H         3.25840477095640   -2.01853762863898    3.13521435057795
H         5.71322111992024   -1.29363072972158    3.07996828642496
H         4.80882456580146   -0.22457085791946    4.10515315700484
H         5.72082898993960    0.21079987972788    1.24424023501142
H         4.48153441797481    2.10870581399438    0.85817058894992
H         3.83945201193636    2.23987695905199    2.54068355732265
H         2.00834406560616    1.39426410303560    1.06876672675274
H         2.55870577053600    0.35039368138091    3.22089987253624
H         0.62581413254358   -0.34298060531103    1.81762556343692
H         1.08116228574996   -1.43520965249462    2.94874646916619
H         6.61938356441650    1.55402922322707    3.67182009198717
