36
 energy: -51.090383179455 gnorm: 0.125258591220 xtb: 6.4.1 (79825abcba525fcdf90b791dcacef51065a7a4e7)
C         2.25543564226268    0.47067650162224   -1.25232298949390
C         3.20358895678397    0.03148919039052   -0.11963633472338
C         3.05686283389150   -1.49539146382429    0.00976230773263
C         3.95994507413134   -2.01322592629720    1.12622563960665
C         3.71044053353876   -1.34626676648817    2.48091305835270
C         4.98726515311790   -0.64873123523876    2.97821215600290
C         5.42289798634100    0.48314113225180    2.02616110686703
C         4.22739168806234    1.42952364257145    1.79348221674871
C         2.98012880970480    0.70118905323310    1.25874681597765
C         2.57259129586216   -0.34259391778541    2.30245803454731
N         1.27141000677573   -0.98544320100832    2.14765381846389
N         6.57617412717848    1.25118800110389    2.49683987138046
C         7.41894694625933    1.92172450527355    1.67341073100494
N         7.82524461685934    1.47412489251105    0.47878762956784
S         9.08733245376451    2.43513081897401   -0.04375767626177
N         8.95484272959314    3.50862778594458    1.22833547913055
N         8.08369927275105    3.06667695932183    2.11705924442197
H         1.18062096379626    0.36978837831412   -1.06540626972213
H         2.27447047712302   -0.25200437442379   -2.07606505510984
H         2.44171106426675    1.44295867376514   -1.71630396459904
H         4.18089352286893    0.29672347395776   -0.54667599989214
H         3.25595628526655   -2.09635009691283   -0.88777425838265
H         2.00591927536606   -1.73252783511975    0.22857959498652
H         4.99101674295706   -1.92281178956942    0.75874888018566
H         3.74739353257693   -3.08262537226545    1.26785657053441
H         3.46353116792996   -2.16021440930357    3.18175676193152
H         5.81472738248402   -1.32626547560471    3.22676697375043
H         4.64465164693641   -0.21158148785131    3.92817480439262
H         5.73730957796707    0.14937836935684    1.02990030778336
H         4.51502406131503    2.11195707924896    0.98137831492462
H         3.97018358626294    1.91336118378960    2.74924936700443
H         2.27013580166482    1.53808368074454    1.18915282180042
H         2.53972084221900    0.30209353461937    3.19022788739981
H         0.56098046577778   -0.25359443440380    2.09914014534205
H         1.07985211570049   -1.46734814151597    3.02655526005270
H         6.26539952875992    1.81719437099065    3.28416413704601
