36
 energy: -51.086235388758 gnorm: 0.131539378327 xtb: 6.4.1 (79825abcba525fcdf90b791dcacef51065a7a4e7)
C         1.12649948078167   -0.26292845176983   -0.24109623326328
C         2.66634077528112   -0.29969812468866   -0.19214874173223
C         3.08220201929970   -1.77566375838814   -0.05716069418354
C         3.05614534895973   -2.18402247058507    1.41347335072383
C         3.87398893126952   -1.21368646217454    2.26895258813077
C         5.32975734510819   -1.30181336152118    1.78200798932685
C         5.90917132844995   -0.02207923079464    1.14649878181587
C         4.84736707225021    0.61739769930929    0.22853618088508
C         3.39931945288172    0.68855145202557    0.74831772479623
C         3.37626718460069    0.22942965704919    2.20899505407534
N         2.17332880572907    0.36578190097177    3.02424925067513
N         6.49555383652057    0.86627335619382    2.15072253552391
C         7.37451459562830    1.84187676085189    1.81375581865219
N         7.77704338117290    2.18016671934640    0.58246465878225
S         8.77759710238456    3.51205663231391    0.70251953941294
N         8.64947023942983    3.61108838264166    2.36443002753087
N         7.80069176591586    2.70873484510609    2.82200466816471
H         0.72352500755423    0.74671638115241   -0.37737427050814
H         0.72908037293562   -0.75213815616378    0.65551563484203
H         0.82838284200085   -0.98998902157019   -1.00124020229160
H         2.92844357859430   -0.04800730867985   -1.22935174276572
H         4.07710801789305   -1.81963580501239   -0.52039908891963
H         2.43371869184447   -2.36528280016434   -0.72079893862693
H         3.55394902036100   -3.15821288147365    1.51077262250060
H         2.02287444257263   -2.39278456713986    1.72591886923511
H         3.86150555000311   -1.63334691932466    3.28796487332509
H         5.49668913533617   -2.09880097728790    1.04548215615066
H         5.99184404048142   -1.52553556265915    2.63200942944556
H         6.79062798200711   -0.23602226104552    0.53001663504013
H         4.93124686900066    0.04167207503646   -0.70391468633658
H         5.22603772361492    1.61165544239676   -0.05748058489749
H         2.93306839958994    1.67733050358405    0.62893683220660
H         4.07648813445521    0.90533648789598    2.71661513596446
H         1.36407508483179    0.11515496690127    2.45419587705471
H         2.02785078413125    1.37538992098356    3.05461875737989
H         6.04016558605074    1.01867163950312    3.04861995637506
