36
 energy: -51.083563182729 gnorm: 0.125538081486 xtb: 6.4.1 (79825abcba525fcdf90b791dcacef51065a7a4e7)
C         0.94896161005026   -0.52286457218412    0.06409858379575
C         2.47221217546961   -0.39216393014703   -0.12950963552309
C         3.05028601387620   -1.81483047663758   -0.23668909784557
C         3.25766498791554   -2.28240279136776    1.20156344235344
C         3.98045347063232   -1.31089939406217    2.13752432350220
C         5.41013662470247   -0.98568135626193    1.67450988450988
C         5.67945894111849    0.42349693069386    1.10971435925720
C         4.56863125973303    0.93695117000362    0.17086347688158
C         3.20686696463882    0.59932666589045    0.80622584858931
C         3.29787975950049    0.05246323005087    2.23365696007972
N         2.00280273101165    0.01712423492378    2.90583160413358
N         6.13386604527982    1.49042453865592    2.00227235598716
C         7.27310330320987    2.18610165824805    1.76543397298091
N         8.22699575273203    1.79664109626137    0.91047366935799
S         9.47486622866255    2.90424229378468    0.98457178836319
N         8.77658502030229    3.81965311754105    2.19395040158124
N         7.60112214151052    3.31394338803824    2.52042559284654
H         0.53188348966052    0.46130349830207    0.30451878205559
H         0.65195853123519   -1.28236959087640    0.79630225855198
H         0.40308648289447   -0.85660495916774   -0.82243802152198
H         2.65487320531344   -0.04806384541909   -1.15716049856808
H         4.02627893305587   -1.89291740649689   -0.73438533700808
H         2.29594661666117   -2.43268420073847   -0.74445460513534
H         3.85317901741381   -3.20518197741408    1.21437803679322
H         2.32606953039542   -2.56034067157961    1.71511287809888
H         4.03231827821434   -1.80337085943414    3.12212509086695
H         5.79465813324097   -1.79215460644114    1.03633288661703
H         5.98741248401780   -1.10537073478439    2.60367074190132
H         6.57002838142453    0.30567879460570    0.48059381079028
H         4.70877170126273    0.34268112730410   -0.74300971673743
H         4.60410936958666    2.00598531993414   -0.09305469727269
H         2.55796772358505    1.48559352946489    0.85901501307332
H         4.00415649589623    0.70981854714426    2.75700649356912
H         1.26160867988801   -0.06760248988596    2.20860921736237
H         1.92972082889863    0.89463826103203    3.42160547491244
H         5.48513315562886    1.99628016037787    2.60233835907297
