36
 energy: -51.093782415524 gnorm: 0.131375917927 xtb: 6.4.1 (79825abcba525fcdf90b791dcacef51065a7a4e7)
C         1.53809561723944   -0.53552366152097   -0.77694593286680
C         2.93116056681389   -0.24332617196758   -0.18631087666730
C         3.80431691785542   -1.48609947605198    0.06418745188330
C         3.72119343100973   -2.03470225387349    1.48627246130959
C         3.58706915065108   -0.95182449463719    2.55942263085221
C         4.97068645452420   -0.29467455625295    2.69321434125495
C         5.32386511742570    0.78529459798348    1.65098429510154
C         4.06301535150518    1.57660674951365    1.24713117784222
C         2.80580349365840    0.71555936540963    1.02331563549551
C         2.42675618073708    0.01542837780476    2.33138378136028
N         1.12015824782699   -0.62946037689357    2.41630992074846
N         6.43994374588670    1.55400178985227    2.20319611370585
C         7.53788867834696    2.00076343268401    1.54528915110318
N         7.88033496536205    1.69554346422728    0.28746612435229
S         9.39644635714788    2.38379278778014    0.15642875041083
N         9.51812995880687    3.07737673289407    1.67046463694338
N         8.45642949778661    2.68015833909525    2.34799769118223
H         1.03114290503117   -1.35746868830430   -0.25950207713559
H         1.57978105433962   -0.88259740253675   -1.81568703179909
H         0.83864709591047    0.30137586731373   -0.70157749835540
H         3.50118373939099    0.37191979281643   -0.89650958609892
H         4.85571057466707   -1.21595427969450   -0.10300780651467
H         3.51217631646059   -2.27554858302698   -0.64293413772471
H         4.54133530306351   -2.74607115922968    1.65253789858618
H         2.81781381420314   -2.66093188590104    1.46189394031199
H         3.50695408104118   -1.47402013737956    3.52666100966969
H         5.69549975242714   -1.11328382029007    2.59296285583223
H         5.04184414060225    0.16913630279926    3.68856802106239
H         5.69660676160347    0.37546971330737    0.70446702986941
H         4.34680728184001    2.15486559522678    0.35660364419507
H         3.95369669538071    2.33302994470161    2.04061646991386
H         1.96292961873248    1.38759964791967    0.80594182183397
H         2.46850856898764    0.66616451867133    3.21435422236472
H         1.08772061559545   -1.40456867881176    1.75236623394447
H         0.46194282610096    0.04529063932610    2.02533927975172
H         6.35725576187643    1.88582278188226    3.16230039115455
