36
 energy: -51.093301800037 gnorm: 0.123303722558 xtb: 6.4.1 (79825abcba525fcdf90b791dcacef51065a7a4e7)
C         2.34777836495113    0.41340818715033   -1.27208620328545
C         3.20867065235764   -0.12567361088457   -0.11315808163459
C         3.08191426084608   -1.65349242221774    0.02590817159474
C         3.90792096289483   -2.09147021733714    1.23259316866757
C         3.69037169016955   -1.31062489581278    2.53075254083200
C         4.99554590238019   -0.65827948273282    3.01563279502543
C         5.56610198660184    0.28663310968134    1.93910226630938
C         4.46687461797912    1.30218643274770    1.56578595714482
C         3.10854154375439    0.66766023997008    1.21310273632379
C         2.63192844076343   -0.22151263160010    2.36510712992449
N         1.26237856318091   -0.64305295663782    2.08774631993538
N         6.73805267077572    0.95573124030952    2.50506998601216
C         7.47966889489945    1.77416589452666    1.71888253574800
N         7.26896533214770    1.94843345214974    0.40824060236247
S         8.47933061127607    2.95249426373110   -0.15419112262958
N         9.08958356881122    3.28231219382774    1.36468402421299
N         8.45859667683364    2.58724664668283    2.29354396292731
H         2.16888677503180    1.49190912888522   -1.20013939138671
H         1.36667155491323   -0.07379418585963   -1.30735950161199
H         2.88230918749156    0.17805686165533   -2.19631345548144
H         4.27532035708562    0.01593501415560   -0.33685795739565
H         3.27147207816245   -2.14477828487868   -0.93797322015260
H         2.06379522391293   -2.01062312769878    0.23683056163578
H         4.96910890553009   -2.09391156555483    0.94940277608448
H         3.62946723039793   -3.12589403329498    1.48014818769193
H         3.39918584078203   -2.02188299415291    3.32067628115750
H         5.78498373030497   -1.34590525317449    3.34651724177526
H         4.79268253309777   -0.11614820745514    3.95150298625117
H         6.01223026697794   -0.29868696394079    1.12598623358112
H         4.82323638964795    1.81832262165008    0.66325054280829
H         4.44388811157537    2.02188605608931    2.39960225117064
H         2.49820446109987    1.58124044723790    1.16635080805907
H         2.60047754348317    0.34268276690283    3.30613422106279
H         0.68069251017281    0.14447115974113    1.79772321299311
H         0.96125523803683   -1.08916580319573    2.95475415760357
H         6.74627471515944    1.08905960266824    3.51451509842417
