36
 energy: -51.088965783585 gnorm: 0.123922973263 xtb: 6.4.1 (79825abcba525fcdf90b791dcacef51065a7a4e7)
C         2.31459065056013    0.35527440025017   -1.26502634778519
C         3.34527495827504   -0.10539977847867   -0.21606103082874
C         3.18486913928978   -1.61681483432492    0.02792950255050
C         3.84544720589909   -2.13628952522669    1.30228538361105
C         3.66403008029100   -1.22343232953780    2.51721104026402
C         4.99377446589897   -0.68494875151249    3.07034607979039
C         5.57285504911120    0.24326364837871    1.98388419584987
C         4.49470468365577    1.23923732620107    1.50991938601767
C         3.11101724941387    0.72606834418151    1.06930126100488
C         2.66086432624655   -0.09583229272650    2.28039340704844
N         1.32161810769901   -0.65855256773750    2.13876874758706
N         6.59469896405771    1.12108368055426    2.55550223340294
C         7.34342967424330    1.88592385078394    1.72343103953297
N         7.35574588971861    1.77978185886068    0.38884134378030
S         8.55130200403748    2.82658387738636   -0.12526252269248
N         9.11352113492097    3.22009493931514    1.39698218362278
N         8.31936987286048    2.69321733357922    2.31118408930575
H         1.36848000558559    0.38919341296826   -0.71360366915823
H         2.33823123710485   -0.29186169152171   -2.14924177610102
H         2.53543040660479    1.36446053650660   -1.62291263775150
H         4.37585918412446    0.01598070140219   -0.57799904929278
H         3.58796421553110   -2.03138259752548   -0.90588483384827
H         2.09942580799849   -1.78485560925731    0.07453449959597
H         4.93001827178161   -2.21233219437788    1.14657506733400
H         3.47469403752256   -3.14516828091388    1.53371207292004
H         3.24197069755043   -1.81488364022231    3.34588950434082
H         5.54619288162726   -1.60010787427442    3.32103206221786
H         4.93661092386039   -0.19776375464041    4.05538210134909
H         5.92164295190262   -0.35231475864286    1.13158081337422
H         4.85646851444514    1.82279355636780    0.65169476412989
H         4.47187475495878    1.91509499700936    2.37965540158358
H         2.50419942239024    1.62503472899947    0.88775947744538
H         2.73127175712047    0.57678650334771    3.14495358943168
H         0.72236505931347    0.15062768344736    1.96909434767304
H         1.05393712418767   -1.12082898726084    3.00827545419805
H         6.35419450496834    1.36354376602040    3.51476976957586
