36
 energy: -51.086904291748 gnorm: 0.129912285749 xtb: 6.4.1 (79825abcba525fcdf90b791dcacef51065a7a4e7)
C         2.24394737415630    0.46578831288128   -1.33543443547475
C         3.12135973587007   -0.09637786976857   -0.20010368782421
C         2.97709272379071   -1.61313004515945    0.01963906029220
C         3.86761387842316   -2.11600219415721    1.15290515466521
C         3.75885465667208   -1.33504132602711    2.46459737631831
C         4.97189318396994   -0.46808625940238    2.84018974317004
C         5.36210535294644    0.64853722289181    1.85115054776162
C         4.11434446960895    1.48260837920991    1.49557701576971
C         2.89000699340431    0.61141639065004    1.15779008180998
C         2.63824269569834   -0.30190422032154    2.36085403120537
N         1.39858193218281   -1.06936122776107    2.42825673992486
N         6.52689906954288    1.28253012296857    2.46984981446045
C         7.50542806875060    1.85782454055060    1.72860900204319
N         7.81895448440987    1.50431324757641    0.47590057783064
S         9.03775614739990    2.53650721517185   -0.01251500718990
N         9.17658875235669    3.34267512109290    1.44315977285825
N         8.24032322390975    2.91435160454339    2.27019494746205
H         1.18801709853129    0.25418884613225   -1.13399024473001
H         2.42117350386358    0.17580638162728   -2.37739524461766
H         2.46028370741076    1.53517437289247   -1.26528089339436
H         4.14441243462647    0.12287236443020   -0.53644989976998
H         3.25056358770519   -2.32498446644438   -0.77082808261475
H         1.95439638545631   -1.82282260030816    0.36419417863293
H         4.91533990147664   -2.09894219764223    0.82381280878484
H         3.70236964469698   -3.17726130434318    1.38801378525036
H         3.63170360193270   -1.94985692057247    3.37040708515464
H         5.83832592855722   -1.05731668499601    3.16825624021637
H         4.60852323084896    0.07685612690858    3.72444817548468
H         5.70781142438605    0.29370158557247    0.87269936895575
H         4.38046435424801    2.15388767755022    0.66700910795829
H         3.79420922561314    2.11422838990516    2.33956465853257
H         2.04281592262668    1.30196869147328    1.03641979714115
H         2.76960716243756    0.35113680603841    3.23327504818439
H         0.60148758670953   -0.47003258799654    2.20891203998019
H         1.22011662687178   -1.41573508520358    3.37142682750189
H         6.16435986313980    1.92144855804737    3.17495410737255
