36
 energy: -51.093334487723 gnorm: 0.127272910915 xtb: 6.4.1 (79825abcba525fcdf90b791dcacef51065a7a4e7)
C         2.01547605861958    0.37862770401737   -1.11681327384650
C         3.09940416494984   -0.11154147791206   -0.13717398140788
C         2.99836961503543   -1.64204538433583   -0.00684083294515
C         3.83251514701394   -2.12045623458329    1.17870738690693
C         3.75256025055515   -1.27760261668546    2.45364653574857
C         5.06716517031857   -0.55006140868125    2.78020555648437
C         5.36079865004173    0.61816658926025    1.81774271341273
C         4.10904244338224    1.46751282213987    1.51652551722537
C         2.84270013818030    0.65698249450655    1.18261620454673
C         2.59894501715234   -0.27962141860926    2.36931713914945
N         1.37939077348578   -1.06865805194800    2.22648589148032
N         6.38171480286883    1.53825734241797    2.32037913629039
C         7.50144932428179    1.95931911995849    1.68255298191756
N         7.68803199244868    1.79517515687722    0.36695762947921
S         9.13540275322975    2.56364896242602    0.04444008757152
N         9.33359973917267    3.22188714623940    1.56615316892041
N         8.44660623478580    2.70080039040115    2.39425490187255
H         0.98920436037196    0.08757573038250   -0.86701740648689
H         2.12235794435465    0.02720632618833   -2.14941203780219
H         2.13161427706610    1.45723461366175   -1.25256491799757
H         4.07151214033714    0.20445167897397   -0.54089495905365
H         3.52249053810830   -2.10622935228159   -0.85312199517661
H         1.97940526070137   -2.05451287512218    0.00654480567216
H         4.88488449226618   -2.28094989496673    0.90836843384337
H         3.47642129130471   -3.11379321798842    1.48746521620039
H         3.55227681877453   -2.02840992469857    3.23520377869051
H         5.92321356785695   -1.23308216409173    2.85887944128143
H         4.97198217781244   -0.06797010045659    3.76480752828762
H         5.77735906892063    0.37687859954899    0.83232643913605
H         4.45389521153040    2.16174654453244    0.73737434060964
H         4.03228098315053    2.08518969238526    2.42555164620312
H         1.98948765958176    1.34432601960820    1.08820630111685
H         2.66196597260934    0.31759823922575    3.28811778525884
H         0.56892072117430   -0.45720556937522    2.11725926906511
H         1.16321975187575   -1.58553187298691    3.07942554847962
H         6.32075505534339    1.99568491643946    3.22805056182287
