36
 energy: -51.079246797156 gnorm: 0.134092576652 xtb: 6.4.1 (79825abcba525fcdf90b791dcacef51065a7a4e7)
C         1.01037306624607   -0.33523030197990   -0.18439356846435
C         2.53611641817697   -0.44666548338167   -0.37026623253019
C         3.05500521028549   -1.87135615023676   -0.10446932385890
C         3.23852652529306   -2.25280785070096    1.36216455667180
C         3.93176439643376   -1.14859304581602    2.16366059784867
C         5.43418961479649   -1.01625860174994    1.86474707548057
C         5.79204072210192    0.27270237097011    1.09804355501888
C         4.66997521922683    0.71647735063107    0.13729006035368
C         3.22283543418021    0.51961150451483    0.62627687441268
C         3.20016183157770    0.19190047736612    2.12193531382588
N         2.08815496458016    0.10503661724029    3.06331072605319
N         6.18126030122250    1.33718572614568    2.02371277093752
C         7.27804136095585    2.09961651321204    1.79199916487502
N         7.82451008648601    2.35727944415534    0.59720664163165
S         9.22014285142324    3.24981942730948    0.80941695836522
N         8.94627012590874    3.46576353570494    2.44236892316221
N         7.88119574468185    2.79493974246583    2.84193537404426
H         0.71136819453285    0.71853760498931   -0.20702404083632
H         0.67615936068046   -0.65571380254607    0.80897065636659
H         0.45650029055617   -0.98426877194487   -0.86797494688240
H         2.79111769585152   -0.13926479746145   -1.39413901009671
H         3.97344250739997   -2.15312520195035   -0.63686061844564
H         2.30306007999031   -2.57697112928161   -0.48562944477348
H         3.81266486375209   -3.15628237743218    1.60797262055335
H         2.19886739711914   -2.28775251088671    1.71817074557185
H         3.85000176541663   -1.46505915263639    3.21619132440328
H         5.63393728943348   -1.89906367289607    1.24323126019838
H         6.08030836836366   -1.01169829035231    2.75548984193940
H         6.62329220050335    0.03029971223772    0.42495391333880
H         4.86364253584630    0.20280703983833   -0.81486343289831
H         4.80091902705315    1.79043127758812   -0.07060957667035
H         2.62007431024193    1.43732776169696    0.56461754225964
H         3.87480677286046    0.92563092924761    2.58164337191709
H         1.40034525000298   -0.60067446092488    2.79581119452494
H         1.59396697166594    0.95537654266418    3.33551430295912
H         6.15550525519349    1.05746496113487    3.00244484382005
