36
 energy: -51.079596501098 gnorm: 0.128146716947 xtb: 6.4.1 (79825abcba525fcdf90b791dcacef51065a7a4e7)
C         1.94700208445462   -0.10208457330305   -0.99639502377368
C         3.13369458378868    0.35866042394348   -0.12787099469657
C         4.21425490356804   -0.73687770103484   -0.17056097467086
C         4.34399224073984   -1.61176447892663    1.07360201943619
C         3.91487909415607   -1.08734332480962    2.44586625239662
C         4.99189333540150   -0.26740108503118    3.17516599265533
C         5.22800712152384    0.89407655820882    2.18899563996585
C         3.91851130007023    1.66211068317005    1.91630778638821
C         2.76800163564481    0.84810103186641    1.29518509336757
C         2.60843227870354   -0.31280802930545    2.28094887123762
N         1.55939152167030   -1.30461327778395    2.06617478830739
N         6.22745297775969    1.86313633774922    2.64011791512013
C         7.17849752523058    2.06786201097832    1.69591330817365
N         7.28113402166844    1.17251383099398    0.70577953569394
S         8.77616797801912    1.43068885033752    0.00744522422859
N         9.06236918385376    2.84725491788726    0.84386599235196
N         8.15329054657941    3.06428493765178    1.77688012543174
H         1.24866578539759    0.72116918451055   -1.18327057469600
H         1.41947923926528   -0.93669990038161   -0.52066630277249
H         2.27729565717301   -0.49609531916908   -1.96126347428958
H         3.56857765204542    1.27201820054602   -0.55739453962101
H         5.12628115985746   -0.15563429293608   -0.36219991220785
H         4.21537740484903   -1.38869535993113   -1.05584590454302
H         5.36375989471355   -1.99049194271228    1.22513424762456
H         3.77028167749059   -2.50716437733864    0.79437491043219
H         3.67877128690677   -1.90231144180469    3.14924156496684
H         5.92946726935602   -0.83725600284839    3.21695454191621
H         4.74321901489203   -0.12354976953339    4.23741866024286
H         5.73325397718553    0.39884364833782    1.35098747643738
H         4.18461445615347    2.54709464708609    1.32136835926840
H         3.65435345789867    2.09208719137410    2.89563733047411
H         1.84498506913403    1.43310187778084    1.17213933799610
H         2.41721527687577    0.16019220012700    3.25282561099053
H         1.77726570004761   -1.80995739057749    1.20604429836455
H         0.64404238603572   -0.85385511268359    2.04753231445579
H         5.97850209378690    2.65068620364960    3.23561112997910
