36
 energy: -51.090714020806 gnorm: 0.131005314464 xtb: 6.4.1 (79825abcba525fcdf90b791dcacef51065a7a4e7)
C         1.29545174582034    0.08481292856103   -0.68902978214599
C         2.73566713036773    0.08440789860753   -0.14072459027213
C         3.29348919787716   -1.35014447917308   -0.16376635169693
C         4.40456102153675   -1.62785165096272    0.84549001170108
C         4.22455217769947   -1.02008909504848    2.23850340919589
C         5.19344919234749    0.08350089643823    2.69399305940425
C         5.03942347378510    1.18228705100245    1.62335908785867
C         3.61501039027129    1.77367412642231    1.64133475210942
C         2.62831833170426    0.64130984972411    1.30035438975963
C         2.84021661047758   -0.39616285953548    2.40654246468712
N         1.81075165615543   -1.42015619649501    2.25844897098923
N         6.03242310121641    2.21435267368815    1.92381285082673
C         7.31434190209744    2.08057391854201    1.50344627660744
N         7.85712188084513    1.13806796623326    0.72266469074957
S         9.49315937908040    1.42353579242318    0.54563053832515
N         9.48575353285789    2.84397355725851    1.42339586104376
N         8.27514018460848    3.00085230379035    1.92722692146574
H         0.70280288007937    0.93803251215334   -0.34099747332679
H         0.79481272715939   -0.84920313587370   -0.40946674210572
H         1.45984312471562    0.05173632945142   -1.76939586505400
H         3.33123976660724    0.70901932292535   -0.82115828556868
H         3.60495001810987   -1.57033902884183   -1.19375072684344
H         2.42611308858376   -2.01258878112902   -0.03176940335874
H         5.32812805272503   -1.22283156006480    0.41039776005271
H         4.51602656613492   -2.71619481973124    0.95474735236362
H         4.22207340528486   -1.85294974425585    2.96030240290065
H         6.25289539312256   -0.19497664914408    2.76849007558677
H         4.92040939967028    0.42583914780556    3.70353090852863
H         5.32217605822783    0.69766155314725    0.68103387207811
H         3.42898750148413    2.55158032658662    0.88753247242350
H         3.37039224699482    2.16167606505235    2.64301433846220
H         1.63206867713974    1.09295023041507    1.41363934646337
H         2.76320244145208    0.19193430746260    3.33014851151919
H         0.91908914600834   -0.94570827082069    2.10843752450993
H         1.76219512072520   -2.05607731664477    3.05509262241022
H         5.93957031576589    2.98935094890092    2.57770850494321
