36
 energy: -51.084796057418 gnorm: 0.131770582221 xtb: 6.4.1 (79825abcba525fcdf90b791dcacef51065a7a4e7)
C         2.34652655264926    0.40962054381176   -1.17992294918974
C         3.40899415474443   -0.04271104962438   -0.15942415849819
C         3.19115029870109   -1.55084575940049    0.05900343498310
C         3.96442051338327   -2.07828849782623    1.26484653532675
C         3.61483903052960   -1.31512336485414    2.54454828134132
C         4.88480425595542   -0.65270114932680    3.10359049319251
C         5.40639898725491    0.42790539042488    2.13532379685821
C         4.38312828514388    1.53370156114390    1.80495089390559
C         3.23476062165443    0.72329781434584    1.17520882007554
C         2.65743548859340   -0.15187214106065    2.29130726083638
N         1.37547910122568   -0.68783516377214    1.84451474882385
N         6.68863905666358    0.98865795857802    2.56298848722032
C         7.34178022723830    1.74851156151591    1.64978001824843
N         7.42260766459725    1.64374385902139    0.31747446660778
S         8.69333314825156    2.60742135809728   -0.17854376403544
N         8.96668785621214    3.32280960691651    1.30525780878574
N         8.15092997753318    2.75729842866112    2.17633618902941
H         1.31859830867152    0.46172919534081   -0.80443523446366
H         2.25728147662015   -0.27197873873423   -2.03352628300068
H         2.72799788489226    1.33348049361888   -1.62294875662481
H         4.40264176799128    0.12645887522893   -0.59746769181917
H         3.54687903524920   -2.00564987712544   -0.87532603790975
H         2.12436160087154   -1.71150222582435    0.27054143220718
H         5.03911563855348   -1.97805323368935    1.06160808921660
H         3.92075885433830   -3.16349735435164    1.43592535802787
H         3.11611441689984   -1.96060482380977    3.28568538287593
H         5.69309143237818   -1.38597580398323    3.22403092533514
H         4.67834315847690   -0.25923552418057    4.11030369166397
H         5.68381656716394   -0.13610740186909    1.23659316650630
H         4.79734644678971    2.33222979955178    1.17349513693838
H         3.83474375244748    1.94644865796777    2.66672798021563
H         2.41525708506391    1.42900087795901    0.97590252772971
H         2.59709942648562    0.44980548103179    3.20737557675647
H         0.70188733524780    0.07858037092486    1.88385500766592
H         1.07744387604694   -1.31967653395090    2.58838704919775
H         6.62192530605710    1.52737943913646    3.42447089190788
