36
 energy: -51.089035353896 gnorm: 0.127283444781 xtb: 6.4.1 (79825abcba525fcdf90b791dcacef51065a7a4e7)
C         1.94853708109075    0.37106944851854   -1.19729333407008
C         2.96124189063005   -0.17753734682715   -0.17341894906905
C         2.77447286419932   -1.68964703912855    0.04630510120356
C         3.73746928968725   -2.10327694433797    1.15614680093622
C         3.75238223293368   -1.27898679600850    2.44556076222476
C         5.02740104876367   -0.51798972248677    2.84475211695019
C         5.47292212980029    0.52562560065622    1.80086986919703
C         4.22530795680130    1.35512124185139    1.43424967741032
C         2.91340417393864    0.59312057541101    1.16903040918610
C         2.58672108873895   -0.29412044373037    2.37359849608800
N         1.28345489155286   -0.94713556458246    2.30038158825810
N         6.67993549483728    1.16249195521476    2.32907455361538
C         7.57210857695528    1.93371879847701    1.66037658922432
N         7.98569328267936    1.73597244650475    0.40244514484096
S         9.23691376788883    2.78792605314954    0.05996511558823
N         9.19999783078623    3.47230177982543    1.58260667815426
N         8.30059324993206    2.89758806604546    2.36030642974612
H         0.91069780595738    0.20035437040811   -0.89055427407331
H         2.17188817374887   -0.16637917654900   -2.12597208063619
H         2.33289530797826    1.39224284997611   -1.26645339634018
H         3.94428756692309   -0.10963031125188   -0.66008733330377
H         3.09806066998385   -2.17648149169239   -0.88355752155073
H         1.76767634710350   -2.03114605888009    0.32619116947884
H         4.72536003379509   -2.08672053403357    0.67643811841525
H         3.51000955987043   -3.15635768823717    1.37554521725808
H         3.52448312223559   -1.96898852431535    3.27418400595010
H         5.86250752770593   -1.17549754699951    3.12008188701211
H         4.71336325905492    0.04812928847810    3.73458494201456
H         5.84584541122727   -0.04000472973932    0.93844404256181
H         4.36170846057851    1.98984999661924    0.54741553489927
H         3.92427826634390    2.03248361254423    2.24929993177710
H         2.16128205559729    1.38343686229540    1.03105051152783
H         2.64202475662143    0.28371241936025    3.30520375468019
H         0.57510970605232   -0.22592651893501    2.44450282394147
H         1.12290212873845   -1.71174780410338    2.95687642810492
H         6.43353346637782    1.53023068807367    3.24606843284102
