36
 energy: -51.093487683540 gnorm: 0.120775087438 xtb: 6.4.1 (79825abcba525fcdf90b791dcacef51065a7a4e7)
C         1.43047902153363    0.41778669060361   -0.91173317460871
C         2.69781372627262    0.01785535794349   -0.13149169557975
C         3.05886309108490   -1.47824359571617   -0.10037599376594
C         4.26295057508334   -1.78967952513342    0.78471229482745
C         4.22558957406038   -1.12495657378562    2.16275887788961
C         5.30570009895159   -0.04891037708827    2.36182903108311
C         5.06206233549556    1.19273226619279    1.48076367650230
C         3.61631680284528    1.73011390763458    1.47333295837966
C         2.60790169145309    0.57755142249727    1.30969819782532
C         2.85258074264020   -0.49092545306577    2.37899322724762
N         1.82146790535854   -1.52062297417587    2.46158525758176
N         5.98813360467880    2.27927058349270    1.80217717257580
C         7.29761477233367    2.22939968105215    1.45476880799822
N         7.89045538862669    1.24472230762518    0.76811174589253
S         9.54379784254762    1.47642516202709    0.81527297787501
N         9.39671494417888    2.88192824491420    1.70470985395415
N         8.15210396476921    3.16208087521944    2.04602990136129
H         0.52907313423158   -0.15502014520269   -0.66739206959439
H         1.52993263482515    0.49765228131873   -2.00026952676736
H         1.18134107655784    1.45980446635575   -0.69392891446043
H         3.54489741398926    0.48793706644030   -0.65044123807237
H         3.32202416836132   -1.69241379253775   -1.14499969403021
H         2.21652732433110   -2.01940485689572    0.35372962142534
H         5.23342646808665   -1.49689807902147    0.36189062238667
H         4.24959065852412   -2.88495138317552    0.87986303128980
H         4.50867634677397   -1.88567621686725    2.90829511621859
H         6.25444048906578   -0.52804025069910    2.08641656433522
H         5.39288789503225    0.15601450775496    3.43947319253876
H         5.26424506292229    0.98281675118474    0.42348163098183
H         3.54959303264908    2.44823979516008    0.64399371186765
H         3.37427234985262    2.28720741839132    2.39246669524565
H         1.58336895873118    0.83289114832148    1.61704195107604
H         2.94905238424851    0.06946511105463    3.31787193012803
H         0.91784685269374   -1.11429612593520    2.70863541892267
H         2.09053764710926   -2.17246078556672    3.19921894540263
H         5.84304425643350    2.65720860566752    2.73648730759958
