36
 energy: -51.085922935684 gnorm: 0.126177953943 xtb: 6.4.1 (79825abcba525fcdf90b791dcacef51065a7a4e7)
C         1.13318601254749    0.00743931554603    0.00020205056868
C         2.60673975549137   -0.33992516042869   -0.28761121258346
C         2.88298374252941   -1.83890917249684   -0.07226680706780
C         2.99682055139106   -2.15148351121891    1.41754487262032
C         3.89277818350161   -1.17688518604792    2.18545305604648
C         5.35030925055491   -1.36094975203446    1.73172778263461
C         6.04288864047057   -0.20043988064212    0.98952652946136
C         5.02073745678493    0.39079280899993   -0.00277652462510
C         3.57929413796689    0.56172039891379    0.51210472657280
C         3.49285446924789    0.28780999996120    2.01623370263244
N         2.32266700067593    0.59766263968571    2.83167520678312
N         6.46423159315133    0.80988104396288    1.96071236083355
C         7.29301205801462    1.87191917252489    1.80866450495931
N         7.64398043648566    2.44129512173402    0.64884569956034
S         8.63514337694438    3.74419832993112    0.97973981776247
N         8.60397451080605    3.49306207594852    2.63023348141047
N         7.91557388133938    2.40870504993259    2.93734220765856
H         0.88202006662477    1.06558963387609   -0.13237403216449
H         0.91849845365436   -0.19667853978784    1.05539212915638
H         0.51003048538925   -0.54536809460996   -0.70788737458813
H         2.78825142899835   -0.27823596769994   -1.36977766264863
H         3.86289353977543   -2.12958932873153   -0.47431552805439
H         2.04882506583848   -2.40232358949364   -0.51424022231890
H         3.31212732272311   -3.20300133873602    1.45239511048602
H         2.00825067395562   -2.31844763588848    1.86888200781351
H         3.79200087178654   -1.41886486032674    3.25594201619269
H         5.49661731243773   -2.30681861492693    1.19372046587387
H         5.92676750721041   -1.64551339448812    2.62483041753162
H         6.93134459182269   -0.53422524472681    0.43996208183043
H         5.00667217163476   -0.25649080357566   -0.89091309871347
H         5.41246959373942    1.38654916688600   -0.26499928989913
H         3.26425145414953    1.60289189668835    0.35074806694322
H         4.32369068609142    0.89278894310754    2.40165464896091
H         1.78521587376003   -0.22496938012899    3.10932455989238
H         1.65683150765964    1.19608760458996    2.34183320028465
H         6.31081757331788    0.66244221379017    2.95647810929046
