36
 energy: -51.089260776727 gnorm: 0.124108708314 xtb: 6.4.1 (79825abcba525fcdf90b791dcacef51065a7a4e7)
C         2.15389417671015    0.14244378919218   -1.34530172179534
C         3.02646628709462   -0.22648926158011   -0.12983250021597
C         2.86412576710181   -1.73945275861600    0.10302786849851
C         3.80060736931863   -2.14424699998129    1.23852077790149
C         3.65343975878105   -1.28589930374434    2.49703013295632
C         4.99304468263169   -0.61545024711680    2.84358437351600
C         5.50568532106683    0.42794807572682    1.83075094987312
C         4.34464250270068    1.40520765209503    1.55514664672935
C         3.06214068202573    0.66090249543939    1.13888157707752
C         2.62581539583229   -0.16473842254430    2.35248773595361
N         1.23141105651013   -0.54529222030607    2.14973791617312
N         6.59961895128610    1.19182568338787    2.43181697903273
C         7.51826947671540    1.91118482516926    1.74150963154891
N         7.62419077189312    1.83804189504919    0.40885129665331
S         8.90074214057816    2.83055783273731   -0.00921614287226
N         9.28863917805549    3.31626137787887    1.54055745510371
N         8.48299829374542    2.69244654804299    2.38069980981053
H         1.08145950834379    0.02585227442909   -1.15390389566687
H         2.46384285617011   -0.46774112058648   -2.20133158366679
H         2.25007892043281    1.20986539432464   -1.56133198193494
H         4.04231543748379   -0.02114119789413   -0.49550846413486
H         3.37367113925959   -2.27161890944203   -0.71154196503827
H         1.84178041059761   -2.06293124688990    0.34545025370206
H         4.81174065723839   -2.04009360220139    0.82248693497875
H         3.74283405313451   -3.22899413008928    1.40833982230199
H         3.41843849598778   -1.92399696904092    3.36436085263193
H         5.77456528610788   -1.36213500107922    3.03649168558798
H         4.72717218348990   -0.02913686986246    3.73603119453815
H         5.92259660532346   -0.04985178688878    0.93594372049021
H         4.56281806901149    2.11803086073021    0.74753105177198
H         4.15437596613457    2.00768283033038    2.45768077110722
H         2.25858445002118    1.39270247153672    0.97127465527920
H         2.73347418862861    0.47913668483011    3.23491168931874
H         0.62168263570888    0.27375821917712    2.14239400160501
H         0.96056326625187   -1.23320119243137    2.85317038632357
H         6.63093291116214    1.28910420852163    3.44492102561308
