36
 energy: -51.090718770214 gnorm: 0.128178106819 xtb: 6.4.1 (79825abcba525fcdf90b791dcacef51065a7a4e7)
C         1.57081569689864    0.27068205274139   -1.05188056238532
C         2.80164457085657    0.13463742927589   -0.13459585667451
C         3.23341325240478   -1.34287550036338   -0.12162429706456
C         4.22204697178578   -1.72111960688870    0.97825526758032
C         3.91899694760462   -1.18575151356607    2.37961408540626
C         5.02799687250842   -0.20974888617295    2.80585480947685
C         5.24945910860822    0.85617771962992    1.71403661148374
C         3.87640118236742    1.55626338270716    1.65398327915729
C         2.66328530834213    0.67131359240381    1.31150496138191
C         2.59207128304941   -0.42868643344936    2.37444006978769
N         1.51298634816553   -1.37135058360296    2.09649741197172
N         6.28697245772762    1.74794996747279    2.23344824597832
C         7.50934559627525    1.95858231564339    1.68631159750806
N         7.97844420636412    1.30562708258300    0.61573073120580
S         9.41330714930340    2.03688314291300    0.17314224073877
N         9.38459525351171    3.09601666887736    1.46371655130113
N         8.31811690642258    2.95835961896397    2.23034281584620
H         0.76106009609230   -0.22734607635047   -0.50726448307326
H         1.76228118630962   -0.15850075478394   -2.04199369211345
H         1.28458766620036    1.32516772211319   -1.08986666204544
H         3.70992127786696    0.61320718326545   -0.52682108600077
H         3.67642358067412   -1.67598601021722   -1.06985450996819
H         2.40204655937794   -2.02527365964670    0.10588205544169
H         5.26398929763120   -1.43112192781782    0.78699591628531
H         4.10602853659048   -2.81296204939631    1.03546018162395
H         3.78948143194619   -1.95063763672131    3.16244978858116
H         6.01949199167148   -0.64286802908927    2.99259269849190
H         4.66810834248563    0.33703073375291    3.69040281689334
H         5.56604864201252    0.50197189021167    0.72555444789725
H         3.84326655145569    2.35498082057912    0.89972006778332
H         3.78084842865290    2.04209868342863    2.63814752486110
H         1.74169728395118    1.27102787209335    1.33005688069041
H         2.40269990537878    0.05474690856854    3.34153275808303
H         0.58797474726183   -0.94963516971394    2.19228856162242
H         1.41196248964964   -2.18324080906650    2.70643425605171
H         6.24619461958759    2.10446684328383    3.18636816152814
