36
 energy: -51.088501384981 gnorm: 0.142713450788 xtb: 6.4.1 (79825abcba525fcdf90b791dcacef51065a7a4e7)
C         2.14430625001145    0.22584933143040   -1.17187968990233
C         3.19574037076834   -0.05523792744319   -0.08085479823199
C         3.12378374538919   -1.58635362136635    0.06107424700521
C         3.96588944069387   -2.12154048914226    1.21633753788664
C         3.73590963850037   -1.30454436211571    2.48987254359846
C         4.96129002029916   -0.47328062115036    2.90410263786038
C         5.38156691437088    0.63812385632429    1.92152471105096
C         4.16965281014760    1.56299371367902    1.68722930775275
C         2.97047009979592    0.69992132285424    1.25232183494210
C         2.60521456915700   -0.28459038494784    2.36687448162316
N         1.35817928174810   -0.94798163619944    1.99930525693733
N         6.44260839501434    1.49203119848490    2.45679411818935
C         7.45320301105206    1.99383861678244    1.70525675021579
N         7.54279083627985    1.81994188834171    0.38076387535649
S         8.95584570171369    2.53813194952604   -0.14547812598517
N         9.34112605202469    3.03906122109150    1.40009593151020
N         8.45540059529966    2.73712867826589    2.33195885928770
H         1.14052392113769   -0.17134379499938   -0.98479288689454
H         2.51034915426287   -0.09905250296297   -2.15250821835832
H         1.91836647385677    1.29081862345015   -1.27238378775864
H         4.18704706349773    0.20964525227492   -0.47453504639860
H         3.45352489741889   -2.07077796536122   -0.86788490858213
H         2.07498450057433   -1.83018899149427    0.28279797394680
H         5.05106233760888   -2.20931385178501    1.07136097137701
H         3.58723343285970   -3.12140776954041    1.47273104106301
H         3.45736850869943   -1.85176288630895    3.40509027466934
H         5.87880226946991   -1.07415604670340    2.95553978446549
H         4.68296528486443    0.00698041684274    3.85425922303483
H         5.72627093758250    0.22273923973631    0.96684024356485
H         4.41022256828273    2.14664759242808    0.78754337275034
H         3.82960847226967    2.15333896439214    2.55302827288315
H         2.14776052243994    1.42958991200283    1.24466922023957
H         2.50326493632972    0.29912001073224    3.29084743008160
H         0.53844714354608   -0.34682659644262    2.09583572244060
H         1.06850233276737   -1.82547999936481    2.43229300644640
H         6.59156966762640    1.75352510642608    3.42955048252596
