36
 energy: -51.083783239044 gnorm: 0.138599793883 xtb: 6.4.1 (79825abcba525fcdf90b791dcacef51065a7a4e7)
C         2.34667341010820    0.38249851231293   -1.12155621272597
C         3.44468113122966   -0.00474569777496   -0.11196221575375
C         3.44368943935541   -1.53321604700089    0.07083350978247
C         3.86308786308302   -2.11714741448244    1.41743269731946
C         3.59319247833451   -1.19198292200987    2.60633636842445
C         4.86844569424790   -0.52139059555109    3.14315871917159
C         5.47012455923016    0.42807567504105    2.08778753469306
C         4.42077756667788    1.50248706594759    1.73632565548744
C         3.17097724366651    0.78659820445306    1.19081679145499
C         2.54495583494036   -0.14557135036745    2.23199862758292
N         1.39082390365606   -0.92696964603550    1.79876857428351
N         6.69411771880070    1.04887824911857    2.59565076313743
C         7.42562495405165    1.70283272407140    1.66015018583801
N         7.22339185134133    1.82619687988824    0.34241329691141
S         8.41726032273144    2.84529648844630   -0.22817037718650
N         9.14106738358026    3.03769667369253    1.26422895285313
N         8.57349183648153    2.29157813339362    2.19439371595455
H         1.37318408712489    0.01612055572467   -0.77742172080723
H         2.55262392141067   -0.04517189368306   -2.10941416421828
H         2.10918300913403    1.44097229274557   -1.25772160116248
H         4.44116522876710    0.32899595051041   -0.43363309071547
H         4.07174008556083   -2.03249393916376   -0.67925665690314
H         2.39403031863541   -1.76700523236863   -0.15754184430089
H         4.89603332628542   -2.36690261749010    1.14000055366475
H         3.35067856864075   -3.08379255541216    1.52645774695076
H         3.15520407145605   -1.74486691337444    3.45317886565406
H         5.61182809613544   -1.24466032379882    3.50342152167531
H         4.58825342022900    0.10986829141844    3.99984849786057
H         5.67387410447819   -0.07240217543582    1.13343134461676
H         4.90995239897322    2.21936854463261    1.06197459134540
H         4.13003095536150    2.08059498766559    2.62795515111976
H         2.51298385109288    1.64275776976168    0.98258288077202
H         2.36553891574853    0.55724143138143    3.05583194042382
H         0.76959421683901   -0.48727374197115    1.11802818513340
H         0.85399936302353   -1.09313420197568    2.65059206893908
H         7.06783718595966    1.03307860220529    3.54270282383560
