36
 energy: -51.084482528247 gnorm: 0.130995129908 xtb: 6.4.1 (79825abcba525fcdf90b791dcacef51065a7a4e7)
C         2.08722529243280    0.44094204448140   -1.18509730392460
C         3.23034539696961   -0.09734205759286   -0.30283557998201
C         3.01515655727529   -1.59146523513550   -0.00129519364007
C         3.91958826504975   -2.11663788900166    1.11063881988847
C         3.78225063860576   -1.35263662972804    2.42961769661453
C         4.98944537290221   -0.53245885508691    2.91348997331468
C         5.45767270277822    0.58751994827375    1.96284669502953
C         4.31806450728280    1.50341820536170    1.47148333426017
C         3.12453583194936    0.61822033312319    1.06652447322298
C         2.72371468525202   -0.26566633240202    2.25100296311073
N         1.38483210839450   -0.84668916127838    2.24110239290245
N         6.47141543200197    1.41817586263221    2.61385867599336
C         7.52592383419957    1.85985772765199    1.88526428189433
N         7.66318882643824    1.48666123694788    0.60681593695831
S         8.80657055680568    2.50458661071193   -0.06098480108281
N         9.04709229759904    3.38278543166680    1.33868886646207
N         8.29114039217391    2.94091865562953    2.32728981366483
H         1.08104583926534    0.08412516261562   -0.93887089857198
H         2.32011184562406    0.05174791947293   -2.18283109472587
H         2.14281977558981    1.53104794664519   -1.12274480536210
H         4.16164691567322   -0.00270903435612   -0.87864655128942
H         3.01269301570846   -2.16163688067603   -0.94004943135933
H         2.04255710767449   -1.64269386942065    0.50862921937490
H         4.98589141157972   -2.13808318569607    0.84822636320112
H         3.72656273655129   -3.18858362436320    1.26072570416616
H         3.40413431343107   -2.01355547231514    3.22640569061998
H         5.77567492641213   -1.26741250510194    3.13077322540186
H         4.77816928958743   -0.09099132124498    3.89907695688440
H         6.01206823883589    0.12115258709681    1.13947874544768
H         4.67381531938001    2.03895091052363    0.58007628692125
H         4.11948973656871    2.23023935809718    2.27525232923561
H         2.30790182040633    1.35194845369590    1.00266665130519
H         2.76456451045683    0.38983583030911    3.13048337080730
H         0.58321549510427   -0.24340274460176    2.05104294084645
H         1.20367624492232   -1.38719615490726    3.08752383272642
H         6.44551271807543    1.39689753206232    3.63155203491832
