36
 energy: -51.085274897641 gnorm: 0.144656093446 xtb: 6.4.1 (79825abcba525fcdf90b791dcacef51065a7a4e7)
C         1.50554153032440    0.22770097030980   -0.87377619898598
C         2.86635246034352    0.17716292025980   -0.15232033433762
C         3.36747412484602   -1.27761907710158   -0.10624140670538
C         4.47899531444684   -1.54997111752079    0.90397898632328
C         4.17691314580575   -0.96261074940962    2.28456542945722
C         5.16000342690995    0.12928690706704    2.73781596554453
C         5.06456457162043    1.24334401890612    1.67617564237200
C         3.62511675626736    1.79626068269773    1.71205792183772
C         2.67883476607420    0.64930757135101    1.31065219816558
C         2.73156162641823   -0.47236095527788    2.35179677991297
N         1.76681586023814   -1.53516017637923    2.08719242077656
N         6.02564094101656    2.25969002342592    2.10612120087860
C         7.29015896609755    2.07100192511413    1.65522032794233
N         7.90705953581593    0.92283738907334    1.34911684288233
S         9.46753969828517    1.21822087841396    0.83229780192098
N         9.20459677861532    2.86703113894123    0.81094369539584
N         8.02397552154111    3.20378973217624    1.29753228911066
H         1.11909903836970    1.25271986397133   -0.89224994868512
H         0.80759532681261   -0.38522923863239   -0.29208162810382
H         1.60511086091408   -0.08541615626595   -1.91653842350890
H         3.63451989545474    0.81949989537866   -0.60526423731426
H         3.76464602832110   -1.46657016536790   -1.11267731760446
H         2.48449391434838   -1.84324483945125    0.22392581343774
H         5.39512166730954   -1.08584349234723    0.51459404593998
H         4.64797459214772   -2.63260804427099    0.99450993129631
H         4.14462466428632   -1.81457956413488    2.98296599269312
H         6.18796800172381   -0.25636916101840    2.72865041054154
H         4.87142110396388    0.38936156926904    3.76737619518213
H         5.37499550236299    0.83574138135813    0.70649506482911
H         3.44692362178002    2.56153444284130    0.94357649516629
H         3.30446423852093    2.10809016890050    2.71887957772931
H         1.64955690902698    1.03394137357111    1.26627000182638
H         2.56946212425670    0.03170991477624    3.31329241025466
H         0.90971042058606   -1.38087341230662    2.62032668429344
H         2.14009885858213   -2.46273906771327    2.29127990614555
H         5.62723539776125    3.13500453676727    1.77157518765530
