36
 energy: -51.091857104035 gnorm: 0.122999432713 xtb: 6.4.1 (79825abcba525fcdf90b791dcacef51065a7a4e7)
C         1.92297894251964    0.21080192240230   -1.14308758026544
C         3.04400063337161   -0.23993106174812   -0.18652643474039
C         2.99401357457719   -1.75186649044031    0.09841115802260
C         3.89076879881928   -2.21726053935749    1.24271824654050
C         3.78301763195900   -1.27488454269149    2.44379358707682
C         5.02058434787325   -0.41916292102416    2.76051460003892
C         5.38922468886684    0.66579402962972    1.72887284998285
C         4.11410620417328    1.49659485159622    1.47815941546212
C         2.90664662851352    0.62145383322958    1.09313058035675
C         2.65273752806185   -0.25415126569632    2.32347541407344
N         1.35544783988556   -0.90295281555268    2.16103120595236
N         6.41330167937469    1.52095086918089    2.33008266108784
C         7.54246918393932    1.89279304119772    1.67844261626548
N         7.69511926690220    1.95396999469501    0.34972038095217
S         9.10580571355988    2.80691068908393    0.08156447821859
N         9.49257732302933    3.05527954690840    1.68683420139930
N         8.56422658038357    2.47873583591289    2.42832162834996
H         0.93149402184591    0.27476328565363   -0.68134153131353
H         1.79948970806082   -0.35864142450610   -2.07134702876132
H         2.10903581307804    1.22772533883943   -1.49883898054987
H         3.98038861731577    0.02231466650854   -0.69862107542987
H         3.28788110551640   -2.40013754507134   -0.73809813820349
H         1.91081099243165   -1.88245183528021    0.23338000357556
H         4.94060340116958   -2.25805028631202    0.92255251561065
H         3.47619910193054   -3.21384154809289    1.45202863919769
H         3.50657695849024   -1.85558057117345    3.33879607443932
H         5.86056228579444   -1.07219674020264    3.03164127653625
H         4.67284706594584    0.04720589995360    3.69458728554197
H         5.77140240053736    0.24324459744261    0.79176033774614
H         4.39295972730401    2.22794432855181    0.70658369760210
H         3.76018540164068    2.12935109104711    2.30768043568555
H         2.04393772935916    1.30160085687560    1.04353975547345
H         2.74883312122696    0.48177998746647    3.13218327682573
H         0.59067908253453   -0.22674680170725    2.18427922325927
H         1.19859115112376   -1.54589577266600    2.93782902122237
H         6.58129811680265    1.43138610030986    3.33037203757078
