36
 energy: -51.080241113809 gnorm: 0.133460762678 xtb: 6.4.1 (79825abcba525fcdf90b791dcacef51065a7a4e7)
C         2.02402416467436    0.20774282365913   -1.17521016498469
C         3.07750397557537    0.00387048563194   -0.06910190718018
C         3.27392629941352   -1.52118877211335    0.00335132026599
C         3.98340652712199   -2.04423592687904    1.24964975539991
C         3.77537483425115   -1.20601474478001    2.51312628071497
C         5.00445766307702   -0.33677645291992    2.82605329764724
C         5.26397622939814    0.84536731301582    1.87080555045672
C         3.94500214380897    1.62727980635187    1.70366897685349
C         2.80344302266781    0.67588597520046    1.29898361217992
C         2.53461253577604   -0.31840295717788    2.43213067868335
N         1.34095010869423   -1.03008512137421    1.98606941488048
N         6.43007514482808    1.57440679245500    2.37100043030301
C         7.57625529625604    1.75324263221460    1.66942403941459
N         7.63795216416152    1.68914441309142    0.33352270152218
S         9.04360340361846    2.49875928914715   -0.06412038093465
N         9.46478026552416    2.98523650935165    1.47669765451952
N         8.53447683127825    2.54571724477366    2.30458635408551
H         1.25986846484192   -0.57012760402331   -1.06878416077877
H         2.47772992345015    0.08966839614751   -2.16586169182395
H         1.59796301309279    1.21346125910192   -1.12712912819309
H         3.99680095825302    0.55489737668049   -0.31220406179537
H         3.88576270098911   -1.84451772798951   -0.84957066545420
H         2.30628073010445   -2.03999610836806   -0.05230812753809
H         5.04987304274803   -2.02011324692146    0.98813516405271
H         3.88828673928391   -3.11798835303396    1.46612273742314
H         3.64690864041157   -1.85213638338995    3.39668729544037
H         5.93082085529578   -0.92181683882597    2.89750109738799
H         4.87115256310451    0.12919963688885    3.81398493443740
H         5.50008606617818    0.38744365408395    0.90263935783624
H         4.11853264528467    2.50453815835686    1.06471248883256
H         3.61157871406916    2.00391196851604    2.68383354067052
H         1.91856634162271    1.31074613478558    1.14643283961898
H         2.49096269029470    0.18996047309397    3.40398401848649
H         0.47751326661928   -0.49908430092620    1.86285720332768
H         0.98090763891432   -1.87256681738157    2.43550075337484
H         6.44222136743034    1.72220576404373    3.37838884926316
