36
 energy: -51.090547461855 gnorm: 0.127355562558 xtb: 6.4.1 (79825abcba525fcdf90b791dcacef51065a7a4e7)
C         2.64612389814948    0.49770738440687   -1.32176582243700
C         3.42801093278927   -0.21082397365312   -0.19860283001221
C         3.04130634430774   -1.67864770151462    0.05750263970157
C         3.67177540651321   -2.23004430410829    1.33369653511203
C         3.60858400969442   -1.32133839896807    2.56354420141746
C         4.90117492172091   -0.63579580462298    3.03617852259180
C         5.50840899323267    0.35926711088648    2.02700629747019
C         4.43726465487435    1.34223600640334    1.51180112519502
C         3.15440179310524    0.60070130589549    1.09172153950421
C         2.66359742443554   -0.14245388741186    2.33740770288150
N         1.25623927125053   -0.52434588401390    2.27581490357538
N         6.69625444676635    1.02757608466648    2.55979747161424
C         7.37960600811590    1.87847829343268    1.75548617072782
N         7.28178357775736    1.89930980324554    0.42036660333031
S         8.44072514174329    2.93879302705085   -0.18443149607245
N         9.16840659449723    3.18397101162383    1.29831518100418
N         8.50880022531859    2.53915941086169    2.24339654860403
H         1.57972521190370    0.27786478540203   -1.20008630267375
H         2.84156818248339    0.03339613309804   -2.29510930182951
H         2.83205099621853    1.57505506923409   -1.31385731987112
H         4.50718375947358   -0.15355375107140   -0.39845869425820
H         3.40957238640524   -2.22295148870027   -0.82253987099435
H         1.95563262189590   -1.84708195484392    0.01826688017594
H         4.74929437089012   -2.32693837952125    1.14425780291570
H         3.32571186643104   -3.25674276055272    1.52073370558992
H         3.24449225762993   -1.94017209675492    3.39968943379795
H         5.67351398536336   -1.41379874414791    3.09724899456736
H         4.67925147073260   -0.27893942275525    4.05319198081504
H         5.85660336479816   -0.28563357179252    1.21113161492404
H         4.96297992108477    1.90872652674676    0.73034581617124
H         4.28662009724213    2.07437093174005    2.32114048849626
H         2.37231539680952    1.30452892425245    0.77188806119960
H         2.91581000064474    0.51839272757642    3.17675755344891
H         0.61694880411659    0.21707871960089    1.98553304617668
H         0.88614767376913   -0.99413431540379    3.10269189384513
H         6.79066613454856    1.07158559216258    3.57270076018018
