36
 energy: -51.099621338914 gnorm: 0.120739821201 xtb: 6.4.1 (79825abcba525fcdf90b791dcacef51065a7a4e7)
C         1.45373571670601    0.44046742578048   -0.84465459103232
C         2.76491115790605    0.11673188884891   -0.10244615964950
C         3.16676108946279   -1.36725541427729   -0.17948652579637
C         4.28893128350990   -1.82255498263741    0.74983399783031
C         4.21439257502375   -1.22971200451607    2.15882157905709
C         5.22370653577745   -0.09757581018783    2.41120234603587
C         5.06391953824834    1.11847285243613    1.47685457886823
C         3.63665813403023    1.68175695049745    1.63385879815084
C         2.63049605249933    0.54362552640607    1.38014163703653
C         2.84939306747110   -0.58455239769175    2.39216990300071
N         1.68651615768394   -1.46567348118812    2.35173421700505
N         5.99348257534714    2.21117340949514    1.76564200359525
C         7.32468969974082    2.14874632530483    1.51682272722759
N         7.93224244326522    1.15166060387212    0.86165316520035
S         9.56100676507276    1.51232852332055    0.78104861876692
N         9.37977916642800    2.96868525092646    1.57751072702397
N         8.13566738231611    3.19652620555638    1.95739982328107
H         0.54112750816060   -0.04414394293068   -0.48045560804362
H         1.64288162221104    0.24777167051463   -1.90685659673602
H         1.15015194645385    1.48560950079758   -0.74061425269230
H         3.50102626120563    0.73594448446775   -0.63399721901291
H         3.47753380251656   -1.64465822278097   -1.19576862198352
H         2.35085964475437   -2.00746136088998    0.18525741738164
H         5.24506084679182   -1.47807950253675    0.33333009520005
H         4.29814778466365   -2.91949729695938    0.82389612177378
H         4.30261308220512   -1.95902587953395    2.98039031722733
H         6.27798661450118   -0.39876534721101    2.35372042061700
H         5.10982677367832    0.28826190603560    3.43544524825153
H         5.12794665550970    0.83964058224223    0.41810967255932
H         3.49883441800451    2.50324612669874    0.91683676207143
H         3.52574548914997    2.14989682443014    2.62496372332067
H         1.63294448209534    0.95195093689849    1.59805700699571
H         2.91873635267211   -0.03668302510954    3.34078375765533
H         0.96085946895249   -0.97191910128393    2.87355342263271
H         1.86806097155302   -2.32552336317277    2.87047709641908
H         5.79114238920756    3.02768577001446    2.33939237020571
