36
 energy: -51.086676949896 gnorm: 0.123790818621 xtb: 6.4.1 (79825abcba525fcdf90b791dcacef51065a7a4e7)
C         0.81610877800189   -0.68512703792166    0.22439959724481
C         2.31441161886411   -0.55001449096487   -0.10980438329559
C         3.15664522802212   -1.83500122454823   -0.01447038631609
C         3.54561453109447   -2.27040888914107    1.39596335785502
C         4.17078237203103   -1.08771753155176    2.13938192127117
C         5.52722124146385   -0.64906430881065    1.56336105936546
C         5.63774630190119    0.63382608826850    0.71525232334570
C         4.36955827008882    0.90711382221311   -0.11903020907936
C         3.05709414824429    0.59405769854368    0.62360797240319
C         3.32631992947417    0.18371173365903    2.07413760969166
N         2.03128587246057    0.27487154022402    2.74112246789481
N         5.90201499109127    1.86986166870307    1.45271979508269
C         7.19973356576138    2.23240777845179    1.60241098445804
N         8.18024315202476    1.80455392977464    0.79737092301616
S         9.54517639226257    2.58308388710615    1.36332147755547
N         8.78994414789653    3.44364745721985    2.57873286942058
N         7.50227858268946    3.15198839842023    2.60862849381953
H         0.31791373847693    0.07085062723736    0.84136174848560
H         0.58652310705762   -1.62559946968855    0.73819231286060
H         0.16260656536206   -0.80062768936672   -0.64445247058825
H         2.32018182723145   -0.23791976932243   -1.16355948693060
H         4.06775150005595   -1.60164753013768   -0.58173815511738
H         2.63975285306582   -2.62435563174138   -0.57868564986734
H         4.18134842974771   -3.16547123815727    1.42803206760560
H         2.66133653466961   -2.55942322580619    1.98194606496322
H         4.41693736926182   -1.42883344025997    3.15805971164339
H         5.96204211014085   -1.49492154030894    1.01474265940534
H         6.13298220846688   -0.43570745044898    2.45691876640229
H         6.55984333808123    0.54760771426248    0.12780772440183
H         4.49522330764800    0.32820614200874   -1.04479186483721
H         4.36385558119246    1.97059821491471   -0.40663056003240
H         2.52897474214013    1.55863795061524    0.62445710571448
H         3.91887490977079    0.98114711745657    2.54084200859426
H         2.16181652089716    0.62513307334482    3.69135660071835
H         1.63560584463696   -0.66513336053700    2.77608842739021
H         5.25047307020609    2.15766098230934    2.18037917548953
