36
 energy: -51.087718732373 gnorm: 0.131313854094 xtb: 6.4.1 (79825abcba525fcdf90b791dcacef51065a7a4e7)
C         1.36355399811999    0.22210608236165   -0.77531357550753
C         2.77306843170940    0.18082201646909   -0.15368363086720
C         3.30157835562578   -1.26484058686044   -0.17301767188435
C         4.48115226802833   -1.62639027703847    0.72591919599762
C         4.20092314272734   -1.08747771650682    2.13066462764854
C         5.21564835876398    0.01557753975270    2.47380446933798
C         5.04768804587551    1.20487847729396    1.50702391247659
C         3.63907446581654    1.80884440659922    1.68036570581217
C         2.68253227323572    0.65774831584229    1.31693415517131
C         2.80190889345411   -0.50085767739549    2.31105884792115
N         1.78233724867665   -1.54515656991022    2.29672040302225
N         6.00126238348811    2.24836835558851    1.88558043860920
C         7.29536760362414    2.17895596853803    1.48759271708816
N         7.77829516231364    1.07713476161060    0.89995467953948
S         9.43338509501005    1.29428148800246    0.84539934646759
N         9.40360138521598    2.81180183947694    1.54139874693965
N         8.18656614984138    3.16681621379804    1.91130602134136
H         0.73275427642747   -0.04115352920478    0.08091590035617
H         1.26937184906489   -0.45983919557215   -1.62810973463843
H         1.15300492363998    1.24811334902198   -1.08882216361954
H         3.36133865052273    0.73114363289144   -0.90129347063318
H         3.55080134295167   -1.48905772284466   -1.21895069013622
H         2.44877152391350   -1.93233440108052    0.01611053646749
H         5.42143463101977   -1.15876020126043    0.40418360236181
H         4.70438400690428   -2.69903243247261    0.63394647829032
H         4.25890010442572   -1.89716653856206    2.87611715452718
H         6.22024698281588   -0.40393105648041    2.33125641529739
H         5.07404671324254    0.37200294313407    3.50522231950904
H         5.31585914964094    1.02331015824036    0.45921433321470
H         3.43662272614259    2.66844412689251    1.02610118869676
H         3.48208099701815    2.18531945149454    2.70377428669692
H         1.70860442452801    1.13020371022222    1.51078030065591
H         2.83162326964677   -0.11388790534684    3.33780566964917
H         0.92855809784134   -1.20714610767479    2.74334819477017
H         2.17903110999214   -2.33963513146270    2.79954473598479
H         5.52654057221915    3.11209350667432    2.14139591336815
