36
 energy: -51.095378004562 gnorm: 0.137745220796 xtb: 6.4.1 (79825abcba525fcdf90b791dcacef51065a7a4e7)
C         1.49508506498653    0.18589417330119   -0.96425656217206
C         2.78584754537351    0.00309613002894   -0.14244382221140
C         3.16137524946866   -1.48796100432195   -0.06920136702533
C         4.33965735492794   -1.85007533005224    0.83120119029313
C         4.18048209095966   -1.13023039624722    2.17237653777050
C         5.22496867307447   -0.01778027079058    2.36117687619896
C         5.07641746951510    1.21322753693314    1.44473577256691
C         3.63067067103047    1.74534122592841    1.52013876471201
C         2.58374346546230    0.64830027715155    1.25083924191364
C         2.87862336153807   -0.35539851961212    2.36911339876561
N         1.77505747931748   -1.30849869074434    2.43263121872008
N         5.98762753640134    2.28629853090471    1.84435434602686
C         7.30674804363743    2.16201453327235    1.55730873130410
N         7.81579564730464    1.37570596134434    0.60068089500801
S         9.47506663441024    1.56362723827425    0.63161713594485
N         9.42842858149638    2.58135363192137    1.95457901423606
N         8.20339177929062    2.96077041281311    2.26980766249389
H         0.71149444393849   -0.42281960840286   -0.49971798221097
H         1.69752413269832   -0.03686189732295   -2.01809672157658
H         1.09889923117280    1.19630190599867   -0.83226242131995
H         3.55377850401056    0.51956760794625   -0.73521313478504
H         3.38064361245432   -1.76482959878658   -1.10921408841217
H         2.25651151735565   -1.96695001919441    0.33128347508293
H         5.17906134620121   -1.45576568019874    0.24277665438227
H         4.43008037109943   -2.92997826657872    1.01690499380149
H         4.37104502787031   -1.85848524815112    2.97735318678075
H         6.25448279047437   -0.37206810297489    2.21937913889434
H         5.22637401995796    0.37547052327148    3.38892426863352
H         5.31463679057901    0.97504410326127    0.40103662937806
H         3.52392642764547    2.58831075531381    0.82302437533882
H         3.35541221534898    2.09574939143529    2.52770634436141
H         1.57570740677310    1.07522854390677    1.35534485212525
H         2.88533194406676    0.22456931547967    3.30100924900473
H         1.00594196683383   -0.81210461756588    2.88509177057468
H         1.96575043711493   -2.07001525196733    3.08464596916074
H         5.69631599790847    2.75125759143385    2.70212712893259
