36
 energy: -51.087953915985 gnorm: 0.123682531881 xtb: 6.4.1 (79825abcba525fcdf90b791dcacef51065a7a4e7)
C         1.41765953123809    0.43676909392297   -0.97011959982893
C         2.60420865240278    0.01727808376124   -0.08074475632528
C         2.80917326524364   -1.50835293105927   -0.07199952556159
C         4.09473964403409   -1.87791537271784    0.66348876086763
C         4.16361289520881   -1.23997836688613    2.05293388127331
C         5.35666990779317   -0.30824021817066    2.32241883493512
C         5.19245362651934    0.95116541407158    1.44820918530167
C         3.79147897566199    1.59155303607481    1.52687413796861
C         2.63994485945794    0.58237898565677    1.36069762450363
C         2.86842446649046   -0.51155356145303    2.40760319083409
N         1.76390856744455   -1.46369702197209    2.46891893022308
N         6.08951751653894    1.99938063487513    1.93606305669662
C         7.39478901370372    2.13622384957030    1.59626774453431
N         8.16922329470749    1.12342051000386    1.18757668699609
S         9.68562927690227    1.79495812650925    0.99008796307631
N         9.25949948087869    3.36255019624073    1.37640227762264
N         7.97871679765949    3.40062230990512    1.69607020977005
H         0.65205140938047    0.98133025422456   -0.40652384043879
H         1.01336649025564   -0.44106550776893   -1.48697014573633
H         1.73171829288822    1.12516485356137   -1.75928868083741
H         3.58003750128552    0.39256396291646   -0.41949955144691
H         2.73005211574323   -1.73264158318570   -1.14428482423201
H         2.00429807905397   -2.02123757817021    0.47363978445957
H         4.97613499184361   -1.48791858025964    0.13683198047813
H         4.16947559218910   -2.96329391049008    0.82229863986142
H         4.25743704427723   -2.04568976068714    2.79904579965845
H         6.27274854933147   -0.82127768595894    2.00129846125502
H         5.42893004086838    0.01314357577511    3.37237303350703
H         5.42049670627336    0.74601438904842    0.39526230848539
H         3.71639823530234    2.36805323128957    0.75268372666154
H         3.77941430173790    2.20886423658604    2.43930324475975
H         1.67241249057072    1.07913015402277    1.52331774530609
H         2.97346854450837   -0.15106501768481    3.43903489696031
H         0.83287622936680   -1.06316320633786    2.59308717502961
H         1.80342512791818   -2.09536476559683    3.26943677835512
H         5.59548330958816    2.86510877622606    2.14407382880660
