36
 energy: -51.080435535371 gnorm: 0.138096295409 xtb: 6.4.1 (79825abcba525fcdf90b791dcacef51065a7a4e7)
C         1.37520150303074    0.12563580873262   -0.91706864127450
C         2.66727573971766    0.15117659266838   -0.07757415726876
C         3.24168173851500   -1.26859927247534   -0.23227136491711
C         4.33442094493612   -1.58349748927606    0.78604120615101
C         4.23796112005691   -1.00828039242122    2.20099198745740
C         5.23869453813234    0.11050052999697    2.53416619629423
C         4.99452219055521    1.33136126259387    1.62466578440885
C         3.52394844539257    1.78233832885426    1.73888922550772
C         2.58482190733828    0.60981372085710    1.39932313765384
C         2.80826234192792   -0.51422816463187    2.41495439682949
N         1.78874119861117   -1.53071062060579    2.17488725171087
N         6.05536566345962    2.31876385232152    1.82746477478265
C         7.36785160696684    2.16407748211359    1.52518445168465
N         7.89169421530291    1.03824633090318    1.02454426253843
S         9.51589743171525    1.30656944798640    0.74273176226563
N         9.47357914315727    2.82181782664389    1.44301867897571
N         8.27347302155216    3.16897283939730    1.87111920125566
H         0.68983356256123   -0.51526969024742   -0.35151248598845
H         1.62024207668086   -0.36514008964422   -1.86589690608434
H         1.05341326664158    1.15792509498281   -1.07874928456574
H         3.21320357249011    0.80913514760808   -0.76814608911914
H         3.71172543093531   -1.23142917387856   -1.22425858071655
H         2.37096698214700   -1.93875906966643   -0.26885893777785
H         5.35440280121505   -1.49235975613535    0.38898509260526
H         4.31915709200860   -2.67849216130960    0.88405294858169
H         4.44606100098616   -1.78787129716083    2.95171782972526
H         6.23432411858625   -0.28748256589539    2.29782530304692
H         5.27200238096226    0.41396553093086    3.59138541574970
H         5.28580597714347    1.01123713218145    0.61696442429674
H         3.33015121062124    2.66208270151975    1.10924414006169
H         3.27493283554520    2.13313157514049    2.75312828814548
H         1.57650727611653    0.98596112783582    1.62546614455688
H         2.74866045515335   -0.12651935423777    3.44012127128898
H         0.87510859501337   -1.22074451428611    2.50934619946959
H         1.97954445632574   -2.39473610752319    2.68326565484877
H         5.71288422291200    2.95891900263537    2.54141949510443
