36
 energy: -51.100052153060 gnorm: 0.117399895935 xtb: 6.4.1 (79825abcba525fcdf90b791dcacef51065a7a4e7)
C         1.65840799120175    0.42803948674590   -1.02193006748102
C         2.86227209446665   -0.04954472752748   -0.18677520344418
C         2.97268305134484   -1.57563625794618   -0.01798247391140
C         4.11458333026070   -1.90442421379045    0.94022550552186
C         3.90839983320000   -1.27443048099928    2.31966782297056
C         5.03248061598704   -0.33791361237737    2.79244859728498
C         5.26947505036617    0.80275617002790    1.78248914655543
C         3.92926412591486    1.52147347342999    1.52501193214008
C         2.75156583897373    0.57505464934016    1.22602058144805
C         2.63593075522290   -0.43081566719433    2.37482691341989
N         1.39267958967513   -1.18220074139459    2.23326727078529
N         6.34351442967432    1.67649408653887    2.25630514890835
C         7.45494702182504    2.08118049984431    1.59383469819263
N         7.97901860331731    1.52152769890212    0.49625319075120
S         9.49086137978918    2.18108800536431    0.23402564302000
N         9.39558369114001    3.20137746542111    1.55239654377183
N         8.26343747040345    3.03703689399221    2.21215291723031
H         0.72212227637550    0.01556882218441   -0.63003743237141
H         1.86141494028232    0.05887778502330   -2.03370511580653
H         1.54762551027487    1.51479605858930   -0.97724389019532
H         3.75774601300928    0.33440265080561   -0.69525046510170
H         3.21925556783707   -1.93463717136119   -1.02628879751872
H         2.07056289584419   -2.09811738701087    0.33100127923446
H         5.09079408458524   -1.59205993452848    0.54555637210224
H         4.15906428314093   -2.99808285755783    1.04407544689635
H         3.80344032077299   -1.98381499893098    3.15657516503727
H         5.93105894527554   -0.92986430851552    3.01079958808320
H         4.78839489250759    0.14304335622667    3.75162294541682
H         5.70409468380674    0.35490291396627    0.88064606754993
H         3.96959329130108    2.21899579597432    0.67660365276068
H         3.64713337420785    1.94114441653775    2.50379897529591
H         1.90179068627174    1.27213779652360    1.19019927209152
H         2.64574771222672    0.06417690419502    3.35448173544846
H         0.57509931348479   -0.67351061379595    2.57306595169392
H         1.44826678771582   -2.09475148309263    2.68664980411443
H         6.16008484516344    2.13851068709024    3.14496578948726
