36
 energy: -51.089119031714 gnorm: 0.137899931604 xtb: 6.4.1 (79825abcba525fcdf90b791dcacef51065a7a4e7)
C         1.67430526127040   -0.57878926601938   -0.73178854906532
C         3.03250696874120   -0.09537491408057   -0.18730920786786
C         4.06071602542369   -1.21723974386278    0.04473025843525
C         3.82184976297456   -2.01363268312764    1.32492612297151
C         3.75405071115468   -1.10840158718085    2.55708875097042
C         4.92932506458595   -0.16169881738671    2.85141360174325
C         5.24166465057286    0.90931243414025    1.78713410021780
C         3.99659807382185    1.70118555159010    1.33795647469036
C         2.83643736583722    0.71203064211557    1.11960513371256
C         2.59043861278044   -0.13623280205792    2.37053927074065
N         1.26126859115456   -0.73900892140183    2.38666611353167
N         6.36228782504919    1.66202238674463    2.35203370185130
C         7.47243858115502    1.94719795241319    1.62804419521958
N         7.69970149737971    1.49537662853070    0.38838435708865
S         9.22221692438795    2.05507224709815   -0.00928291796679
N         9.34637284209403    3.02685414355759    1.34289884011673
N         8.29115234396848    2.95878254652259    2.13404820840842
H         0.97520871306883    0.25854930962928   -0.62946091226502
H         1.30138055095112   -1.47309620341063   -0.21961359615490
H         1.80399680889880   -0.86188108407497   -1.77980981597388
H         3.47303383446875    0.53484273419434   -0.97254674850817
H         5.07910566840681   -0.81409609635395   -0.03723935678505
H         3.98501225957275   -1.89786764122080   -0.81527646136226
H         4.68263917914311   -2.69042758544009    1.41044121542233
H         2.92505175759877   -2.64893572294958    1.35648497282331
H         3.57006357903924   -1.64152265353343    3.50397175658626
H         5.88619254229613   -0.67838680323910    3.00295218355917
H         4.60292840525192    0.32207131312778    3.78433618671267
H         5.70412312523140    0.46360404352234    0.89816622303316
H         4.08904972959719    2.32578568554708    0.43835224222415
H         3.72970898927899    2.41901096337367    2.12994284408636
H         2.03301211954748    1.44371330704047    0.95086209278801
H         2.57778915838799    0.54352840246498    3.23228300343990
H         1.09377047245163   -1.67572152659298    2.01628771827998
H         0.45210571733852   -0.18083195284386    2.11264346132116
H         6.17722907834237    2.12084477223059    3.24201053262975
