36
 energy: -51.089776526582 gnorm: 0.129866097029 xtb: 6.4.1 (79825abcba525fcdf90b791dcacef51065a7a4e7)
C         1.93769509320362    0.36880607300535   -1.12101601739696
C         3.06975323131016   -0.10870858834078   -0.19081004020576
C         3.03832671783351   -1.63580694524835    0.00055303622943
C         3.88481631957014   -2.11137016592631    1.17847290484850
C         3.70965534892866   -1.33610310190605    2.48635073088319
C         5.05811466777186   -0.70916943307196    2.87718919511645
C         5.53644893721895    0.37905640228326    1.89521524940655
C         4.41497110122731    1.38669460560512    1.56968940660345
C         3.11064665215659    0.69370316848978    1.13313678035337
C         2.71403249977609   -0.18944302029510    2.31958210556597
N         1.39501189395001   -0.78053279751517    2.11687638259344
N         6.66411665937555    1.08993276874793    2.49895397249993
C         7.53615806531239    1.81454577547469    1.75571754503806
N         7.73370527638588    1.58159214898137    0.45216273046143
S         8.82109070505439    2.75330375246349   -0.03171382200202
N         8.98229772062056    3.46071156825148    1.47219998252144
N         8.16281176409151    2.91158352148024    2.35023330489686
H         2.31476377280643    1.08001509872342   -1.86421433749193
H         1.02040448070997    0.74262999892012   -0.65195897020246
H         1.59449267784735   -0.48712703402377   -1.70829794684688
H         3.98754557987138    0.23349411128712   -0.68919815155018
H         3.37818898916161   -2.08108465349882   -0.94421290165136
H         1.98396384711396   -1.89482496142282    0.17325379043667
H         4.94417156993504   -1.99844159943079    0.91138456170347
H         3.81178337186612   -3.17117556939755    1.46190061395638
H         3.39697532840400   -1.95355025421311    3.34404938428911
H         5.84450330815574   -1.47540558711539    2.87811182769197
H         5.11397812019593   -0.13744525258441    3.81576449688322
H         6.01797517986363    0.08588504538597    0.95448642490765
H         4.64252001039935    2.15437862289913    0.81679953588192
H         4.08846507729127    1.97923557399405    2.43919186602985
H         2.41358819334361    1.54172550011201    1.06761208144559
H         2.76283818629188    0.41010359248546    3.23773210766698
H         0.64198071023297   -0.09379063428725    2.05366619649888
H         1.25973763171714   -1.55869932759776    2.76305920065672
H         6.41653608901774    1.61115382259169    3.33791521911185
