36
 energy: -51.095237026623 gnorm: 0.129866131198 xtb: 6.4.1 (79825abcba525fcdf90b791dcacef51065a7a4e7)
C         2.32445318729714    0.50025632395753   -1.26813710008268
C         3.19763236914028   -0.02085849735477   -0.11018350598400
C         3.14812005367228   -1.55395033246715    0.01948852064368
C         4.12143644354765   -1.99897816003623    1.10797632845121
C         3.82800652289042   -1.30355945015046    2.43935024983603
C         5.01892776216035   -0.45061483459146    2.90661375154482
C         5.28577160345702    0.74514295802079    1.97052098424453
C         4.05670464527760    1.63879411207407    1.70633088455620
C         2.93612215880546    0.69051632038739    1.24034616958438
C         2.66290796224211   -0.31866036618381    2.35919331512237
N         1.41738724613733   -1.02782264468709    2.08340513755049
N         6.39891486559268    1.44875687254528    2.60873700205358
C         7.37573619480551    1.92407870112464    1.79768222919229
N         7.36459961182211    1.62761556358929    0.49210457055457
S         8.77555025806976    2.26752900636658   -0.13173894091948
N         9.19152948501062    3.04351108622745    1.28705750100811
N         8.40338830069105    2.72607457273889    2.29805151169749
H         1.29044430202064    0.22179140742038   -1.03656479138067
H         2.59706436069484    0.13024267662045   -2.26310140417630
H         2.38610890778910    1.58352515151957   -1.40243776379495
H         4.21088505432658    0.24464498113768   -0.44284414623589
H         3.47785174375710   -2.07008380308280   -0.89223761263524
H         2.09381252478133   -1.85443774937348    0.10158538882986
H         5.16262982192792   -1.75395852128360    0.85856838751376
H         4.12628940595965   -3.09566300622093    1.18615162332518
H         3.62850419188083   -1.99343261287824    3.27537095197627
H         5.95048229675526   -1.02972474144696    2.85799626642921
H         4.79563094158521    0.03350024416099    3.86925802456965
H         5.81278350022390    0.44164092806748    1.05786952745557
H         4.21546833356022    2.37954894798703    0.91006661175682
H         3.89279480161736    2.13570538360233    2.67584533533519
H         2.03085401256134    1.30355292463920    1.12201794211332
H         2.65079157120380    0.31157256011052    3.25780180935001
H         0.65922041712185   -0.40073485974883    2.35655393980118
H         1.34807206250992   -1.79577983307650    2.75185983053187
H         6.40203634144918    1.74463447049851    3.58304197169879
