36
 energy: -51.092102340582 gnorm: 0.130136548571 xtb: 6.4.1 (79825abcba525fcdf90b791dcacef51065a7a4e7)
C         1.81475115373855    0.10774134587174   -1.11042287403996
C         3.00175596183562   -0.16363428563375   -0.16584151409935
C         2.99566613151696   -1.68760608161950    0.05120633023178
C         3.80947106778961   -2.18090411743634    1.24476354885117
C         3.79309771287567   -1.19360602092937    2.41405358162676
C         5.09473464307634   -0.41331955238076    2.66111106924832
C         5.34705841599560    0.69469435867836    1.61902187859343
C         4.10532057186249    1.52979158332383    1.24523833695843
C         2.80352191925470    0.72166130281864    1.08927885471479
C         2.68029931005453   -0.14933825985837    2.34270554507315
N         1.37627376883178   -0.80424287182881    2.31254854049279
N         6.34438755600917    1.52896846415637    2.29043937090278
C         7.48398475422019    2.00123828123895    1.72812269064757
N         7.74046506218180    1.92587607347216    0.41622107893605
S         9.27807113093987    2.52442527443723    0.15745845129867
N         9.42409308053084    3.03116262301462    1.74177694888076
N         8.42592562251784    2.65853372681262    2.52206586546463
H         0.87155241513143   -0.33029223378147   -0.76568305231267
H         2.00649193582986   -0.36748234467680   -2.07922566320784
H         1.55913195287469    1.16183934753262   -1.24770244305097
H         3.91691399014991    0.05781629002296   -0.73265861923553
H         3.32774642114500   -2.23912133227657   -0.83868967362220
H         1.95421593745734   -1.88593876842509    0.34214034164817
H         4.85988585377144   -2.37505049152775    0.98930601567921
H         3.48930436026959   -3.17131916504268    1.59891590367384
H         3.73164881592332   -1.82613106638740    3.31449395903721
H         5.93507160078553   -1.11720943166888    2.59867207132450
H         5.12612057735447    0.07211918858985    3.64816578649331
H         5.85083562335724    0.20648968767319    0.77601985433704
H         4.29836052320085    1.94680990721630    0.24684375658881
H         4.00348320811180    2.32682355400718    1.99897218289265
H         1.94364455791098    1.38585756484367    0.91963184249841
H         2.80964315440109    0.38415715865687    3.29322665474516
H         0.63637133208430   -0.10729426931606    2.40987955118990
H         1.35852124063175   -1.44379872195976    3.10756280262194
H         6.23116418277138    1.72841059057701    3.28252141876286
