36
 energy: -51.086902053937 gnorm: 0.127089685145 xtb: 6.4.1 (79825abcba525fcdf90b791dcacef51065a7a4e7)
C         2.22541189406991    0.59634073849560   -1.15870739850269
C         3.17729764534597    0.10943800802079   -0.04888832490492
C         3.37728635513697   -1.41583835285600    0.00744540435904
C         4.06534428994099   -2.01507213738723    1.23124909382355
C         3.75859487214668   -1.27643913482342    2.53608278545110
C         4.94748642528093   -0.36333813817000    2.87802807493753
C         5.25997918060169    0.86690543573441    2.00272180802480
C         3.93272906106540    1.63613683962100    1.84239524900894
C         2.81428635650335    0.70816702904014    1.33245833409142
C         2.51161948761864   -0.42005808605667    2.32261157986938
N         1.38432986784442   -1.23218422493944    1.87544114491961
N         6.39715878806239    1.60580410137634    2.55256858726566
C         7.41950296438982    1.98867151393235    1.74873678889178
N         7.63274777452212    1.44709636934829    0.54301274008235
S         9.00809698965666    2.08506982015166   -0.15759847919864
N         9.27818420345598    3.08754160744291    1.15017576169180
N         8.40601056251368    2.90261805095148    2.12442305122439
H         1.21950675171899    0.24627722411469   -0.90189382325879
H         2.39561879736713    0.07098806558674   -2.10539378517162
H         2.19470065510795    1.68075126630449   -1.29442803207630
H         4.16286792230216    0.47359219064195   -0.37119128304380
H         3.96928876442355   -1.69936257872606   -0.87318418554931
H         2.40844947713576   -1.91991875072099   -0.11847137113656
H         5.15327576546314   -1.87899519991051    1.16635848743741
H         3.83566406582202   -3.08947455183525    1.27319013326306
H         3.59186200786325   -1.89855709328611    3.43041281579045
H         5.79673439012246   -1.05808685818671    2.91837558587496
H         4.82546475866694   -0.02967228913334    3.91951292895164
H         5.69789942314669    0.52260537633002    1.05801494712841
H         3.85942146316954    2.42967452071346    1.08550397683346
H         3.59318619517439    1.95900248517618    2.83949803469142
H         1.95955735464974    1.33996267035457    1.05032625939594
H         2.27433503758967   -0.03131657388511    3.32131760875143
H         0.56806223761384   -0.76771322090507    2.27624053041138
H         1.36466364813529   -2.18887833025960    2.23004535873984
H         6.26743655841408    2.17396430687903    3.38754740144484
