36
 energy: -51.094841454447 gnorm: 0.127591255762 xtb: 6.4.1 (79825abcba525fcdf90b791dcacef51065a7a4e7)
C         1.30217351763037    0.64541582092045   -0.67475629368336
C         2.65957964570972    0.32094802435132   -0.02128213433560
C         3.14274511795901   -1.10447954967928   -0.34430600933351
C         4.30047807790562   -1.58203580023700    0.52850258079398
C         4.21788592762515   -1.32156411673335    2.03435716259404
C         5.20821755980595   -0.28670438972082    2.59333106690794
C         5.12977172825973    1.01238929886033    1.76658206383919
C         3.70825281836583    1.55425033689165    2.02091472001082
C         2.67504923438864    0.53123799800617    1.51296400091635
C         2.83916473291326   -0.74250277749383    2.34696237419466
N         1.75079057001655   -1.71472495137706    2.36972122254395
N         6.13122039682240    2.00249621094665    2.16441247789612
C         7.37214657022843    2.05182114553881    1.62073071065094
N         7.97427244573297    1.11460759940870    0.87801769953593
S         9.51140514527220    1.64864821863783    0.50188562883225
N         9.35306581540303    3.08154047054409    1.34445236145333
N         8.16951155275654    3.15680138994909    1.92546565925287
H         1.36923604604400    0.70117119754927   -1.76688119974629
H         1.07842184805353    1.63799649581300   -0.26744836603160
H         0.52278613670234   -0.03526733220848   -0.32186078115264
H         3.33864957352749    0.96847562004758   -0.59347820288098
H         3.40011141015305   -1.23529896203054   -1.40402777866315
H         2.23157849280977   -1.71162987958833   -0.24561014521772
H         5.17272943332316   -1.06946526645624    0.10098454555105
H         4.49713185908652   -2.64314620822657    0.31820603489029
H         4.28344615634907   -2.29135865055497    2.55383504884018
H         6.21390533484630   -0.72708065451983    2.60699397863046
H         5.01283422767141   -0.11137298347550    3.66197373771391
H         5.37329379561737    0.74532342931055    0.73113020340697
H         3.62351089026880    2.49608335831393    1.46079878887709
H         3.62272973386824    1.86301676487480    3.07499947753208
H         1.66461510931013    0.87995984135435    1.77130858263465
H         2.92788756343690   -0.46231356086460    3.40453503127888
H         1.88578644353674   -2.26582575438993    1.52076283939892
H         0.88606602541756   -1.18893886832804    2.23859154663434
H         5.82141228534093    2.88541521880288    2.56602976270091
