36
 energy: -51.092688514743 gnorm: 0.126089092952 xtb: 6.4.1 (79825abcba525fcdf90b791dcacef51065a7a4e7)
C         1.93449218098388    0.31142364500991   -1.13711968672760
C         3.02453122326650   -0.04510798163380   -0.10777070071088
C         3.06972684547522   -1.58351928051453   -0.13752179709947
C         3.95927482601129   -2.05765070935435    1.00882205264539
C         3.75989053361786   -1.36155329787720    2.35713927859626
C         4.99490301593039   -0.56267871039749    2.80512015223735
C         5.36109826211842    0.63553809692673    1.90651582634952
C         4.08313086257609    1.47589296402265    1.70747401900470
C         2.86640831031388    0.63728121646980    1.27342970919690
C         2.62108071855490   -0.34528196702838    2.42203180504227
N         1.30648865385047   -0.97746486140793    2.37218438099245
N         6.48354312323216    1.45878950616954    2.35801886543699
C         7.40728190618686    2.06410530201806    1.57174905287477
N         7.98407493500232    1.44773754269965    0.53254351700684
S         9.33460047564887    2.35035876875213    0.14420425794455
N         9.17608362298206    3.45010178946627    1.39064236559827
N         8.09742575950478    3.15937751434025    2.09492781488933
H         0.94021086859294   -0.04177465118432   -0.84216460782741
H         2.18490953280126   -0.10226306474620   -2.12065180047147
H         1.81454915294987    1.36515919202121   -1.40275959861056
H         3.96075154994642    0.29111133701645   -0.57497984333829
H         3.31868046368829   -1.97795703237960   -1.13190719729382
H         2.06521269876872   -1.96123069954359    0.10097860064824
H         5.02221003450239   -1.91767020025470    0.77029140935881
H         3.77767372017438   -3.13996355480053    1.07569955395730
H         3.60191027615299   -2.14356973215464    3.11750065721365
H         5.85477717734022   -1.23615050478581    2.91727202260753
H         4.81351616806980   -0.13837846239689    3.80411017051296
H         5.77073530767460    0.32368516873643    0.93814965501816
H         4.31219627074778    2.27046602165485    0.98349665565630
H         3.76805070509583    1.99302865608067    2.62782220343628
H         2.01968055504296    1.33062686662944    1.16549491597797
H         2.69261398845735    0.16496112426589    3.39124420256966
H         0.62353513136003   -0.34097334117167    1.95851862470253
H         1.15425219851826   -1.41179169853422    3.28299654756094
H         6.22740512080429    2.07560861452527    3.12662219004689
