36
 energy: -51.090034686353 gnorm: 0.130987536638 xtb: 6.4.1 (79825abcba525fcdf90b791dcacef51065a7a4e7)
C         1.87797333719960    0.40444432070119   -1.12494899383442
C         2.93328669658402   -0.20287842868467   -0.18031579561644
C         2.83786733462751   -1.72244500047393    0.04650897951530
C         3.94069705064944   -2.01068731935726    1.06183318987294
C         3.86189493986001   -1.22051915801965    2.37014863151962
C         5.12184522633799   -0.42320574022585    2.74559455363571
C         5.33642388874218    0.68209332221846    1.69222759657370
C         4.02670160661889    1.46557781154071    1.46908188378315
C         2.81818973019966    0.56170536892162    1.16152490231774
C         2.61721160627295   -0.33485537749841    2.38655108188306
N         1.32392451337756   -1.00914021740927    2.33141002686371
N         6.23120083016114    1.76738588677607    2.09595325294486
C         7.45560409105286    2.02689597747354    1.57498131928487
N         7.88204501170719    1.68371554499299    0.35312913338613
S         9.39368170946856    2.38064623595124    0.21640396669812
N         9.40852946336391    3.07644359662505    1.73423657529602
N         8.27362630297697    2.83656070157605    2.36549909633826
H         0.88609330927346    0.19362009863548   -0.71013580685034
H         1.97785174261152    0.18676647543601   -2.19444494146609
H         2.07092864119939    1.47400792256345   -1.00615753286699
H         3.97795912828805   -0.03017813338728   -0.47471404697659
H         3.15756178751366   -2.12903862159102   -0.92242774734050
H         1.80871990357425   -2.02045939065115    0.29276075695887
H         4.91656089421703   -1.86151249825302    0.58041941788040
H         3.75352124537773   -3.06035310675199    1.33019774835286
H         3.80875180195406   -1.88602621433590    3.24703684418827
H         6.00814583744492   -1.07066996051561    2.77364969268012
H         5.11062801338956    0.01458097889736    3.75511414629757
H         5.76756733372130    0.29146659949572    0.76254282468050
H         4.27693931545040    2.23036977570349    0.72045996366359
H         3.77234620878304    1.99011697321265    2.40391209854192
H         1.95270694001724    1.23296084155812    1.06313027689684
H         2.63237815444079    0.31445258791484    3.27142774504429
H         0.56318285560149   -0.48309320927564    2.76409116232239
H         1.38599672682568   -1.88653627328618    2.84882447438890
H         6.13337060494526    2.12929815779046    3.04266980829589
