36
 energy: -51.096595982180 gnorm: 0.122189931917 xtb: 6.4.1 (79825abcba525fcdf90b791dcacef51065a7a4e7)
C         1.91346589885839    0.25848112451763   -1.15983944523308
C         3.06807826881418    0.00364829186631   -0.17151280294959
C         3.19116398834916   -1.52456504080187   -0.03348836165221
C         3.89549673516908   -2.05650517558878    1.21196548997431
C         3.74610928067795   -1.18759535802734    2.46294266354623
C         5.09333930760284   -0.55261194491560    2.84492480031724
C         5.33159872004621    0.59994512524611    1.84885422124433
C         4.12590777218701    1.52440375889405    1.58295969047337
C         2.85307655764029    0.76864551660138    1.15774472846905
C         2.59302752951618   -0.19593887719475    2.31828507281065
N         1.37494771073567   -0.98923438897705    2.18692358672628
N         6.46037102003561    1.36221844374454    2.38391738684776
C         7.45752109925094    1.91648476534189    1.65152326821104
N         7.82663349257326    1.51339145022461    0.42930428282056
S         9.16770181577833    2.43718578996603    0.05837108825738
N         9.27491698988879    3.18478122243317    1.54759109452522
N         8.20750264020169    2.91460939954590    2.27675167425265
H         1.00422222996262   -0.09100060825750   -0.65836034723225
H         2.16461169370007   -0.20220409264159   -2.12206386725698
H         1.74875188278238    1.32896289226296   -1.30899548139188
H         3.98018445486317    0.46542382695722   -0.57482638104841
H         3.78955877089346   -1.91013502106562   -0.86992171213783
H         2.18800636274963   -1.97313255057886   -0.00094749427524
H         4.96398686712805   -2.27360359642527    1.07960353159598
H         3.42956936000057   -3.03678972136415    1.38748318433713
H         3.42972387525451   -1.89397167300635    3.24753780100442
H         5.91788061080766   -1.27723300331923    2.82080587358624
H         4.92796051064239   -0.06060384701485    3.81522925981086
H         5.66371561440053    0.27056825693138    0.85688803102953
H         4.31922237737431    2.22146973517173    0.75550038510017
H         3.96595447841242    2.13071068543310    2.48880313926427
H         2.06562064672298    1.53215516249960    1.07842236432084
H         2.55898284422274    0.43263482639096    3.21749228171522
H         0.58195289799247   -0.34609826056664    2.20111630635254
H         1.34948225083745   -1.76639166673436    2.84781130604207
H         6.31116717174498    1.93291573150407    3.21389708311891
