36
 energy: -51.091381416661 gnorm: 0.125163867183 xtb: 6.4.1 (79825abcba525fcdf90b791dcacef51065a7a4e7)
C         1.85515619452474   -0.24881825773939   -0.89816512831173
C         3.09169354390963    0.06591826684027   -0.03400346088959
C         4.10761359187259   -1.09045533791947   -0.01547183931196
C         4.20164570203970   -1.95117882740926    1.24171283163976
C         3.97925076877642   -1.07826185689239    2.47897644624214
C         4.94638881294150    0.07576018151149    2.79045709916978
C         5.00913538753727    1.21824286337067    1.75696392024367
C         3.61195578870764    1.83209942009502    1.53317007904564
C         2.61657923141325    0.67887846961171    1.30648836323403
C         2.64274098142882   -0.33878075439950    2.45042357558309
N         1.47572102067688   -1.21418516874057    2.49540815453085
N         6.03764721993589    2.21631507964368    2.05276013077155
C         7.30214617694100    2.09486790750035    1.57924815847757
N         7.61389059325128    1.22427165046530    0.61104103227865
S         9.20392456508599    1.46687732817392    0.16116757951885
N         9.43653513487648    2.74262631629196    1.21308349554186
N         8.31556872802058    3.01462550562244    1.85611702240017
H         1.17261887501479    0.60726395100046   -0.93827597501359
H         1.24933952558870   -1.08233012497642   -0.52476848320358
H         2.18549843954230   -0.42894793977381   -1.92468193443301
H         3.63270186208450    0.87367169373995   -0.54652723066305
H         5.08623726807211   -0.63042147976729   -0.20789283901029
H         3.93826893155618   -1.69778653605052   -0.91606506320095
H         5.19963830940197   -2.38648625614924    1.38607622301810
H         3.35388722410646   -2.65073215087800    1.21372546764176
H         3.92436551269625   -1.73519046211909    3.36220302280892
H         5.94803723319458   -0.35306056879297    2.92587861648457
H         4.68769139112208    0.50977407460129    3.76801550993100
H         5.39685175367342    0.81020109326475    0.81570644300330
H         3.54778379266198    2.47824981812495    0.64641642033365
H         3.33693322273465    2.44097980281653    2.40916824665179
H         1.59843703763800    1.07654293023998    1.18576009010885
H         2.47049332622035    0.18864959983456    3.39751678124033
H         1.36599870557852   -1.89125176490248    1.73896375707476
H         0.56418580580940   -0.77658755750873    2.63327180865774
H         6.05237470420078    2.80050789738039    2.88662183516001
