36
 energy: -51.084169555107 gnorm: 0.137326433228 xtb: 6.4.1 (79825abcba525fcdf90b791dcacef51065a7a4e7)
C         2.14750029037674   -0.19845480230759   -1.21264602354219
C         3.25764837008477   -0.23789010115417   -0.14452843708760
C         3.55891358403668   -1.71074308778609    0.18650061024091
C         3.80644610762040   -2.07139674094413    1.64898372240440
C         3.53849871331159   -1.02563646534483    2.73381295435254
C         4.83086747661198   -0.27174669762336    3.08818041604582
C         5.37721771531545    0.60819022157235    1.94602261273596
C         4.24173314229652    1.54414055748014    1.48376061131385
C         3.03204200099225    0.67932292062254    1.08274259177584
C         2.50355633963765    0.03706201412912    2.36847443003347
N         1.20509989473753   -0.60636446806691    2.19439014600852
N         6.57184038313320    1.27434615142797    2.46620827443291
C         7.42421872723170    1.84855462432621    1.58209493197145
N         7.55151312045535    1.78658640390086    0.25074091508109
S         8.94270643585501    2.58403799020224   -0.21627491921325
N         9.33335323788156    2.97183072130657    1.36017112351458
N         8.44095930149382    2.54718170544598    2.23615493479092
H         1.44372875139886   -1.02831728630868   -1.08467454524029
H         2.48967876711929   -0.15131458155921   -2.25277707851605
H         1.58762414524603    0.69219262750007   -0.91499637025867
H         4.08844362424554    0.27194475148403   -0.65215416466011
H         4.39332571315609   -1.96475788487501   -0.48102779482265
H         2.74000939574189   -2.33811627710753   -0.19349382114301
H         4.82060873077954   -2.45090390752642    1.83275281588639
H         3.10864656376494   -2.88173440930922    1.90448567964187
H         3.14353226399578   -1.57748544734953    3.60221435118633
H         5.57184266621173   -0.95813058437123    3.51871348451995
H         4.52945043298420    0.45962835171068    3.85313216944984
H         5.71682970954381    0.01103739965069    1.09111916421582
H         4.50575882668582    2.21877300931823    0.65724870675112
H         3.91254102137192    2.21646340443543    2.29206752442586
H         2.36217761116729    1.44434596223386    0.66399765359172
H         2.44395255277437    0.77127564032952    3.18224056173993
H         1.25045296567159   -1.30306159726686    1.44925760258579
H         0.55886396507248    0.12988830189164    1.90854840962184
H         6.29160554431448    1.84734016856171    3.25991463765550
