36
 energy: -51.093488883594 gnorm: 0.119762587856 xtb: 6.4.1 (79825abcba525fcdf90b791dcacef51065a7a4e7)
C         1.46661175077562    0.05637046158108   -0.98732653948377
C         2.79488092963354   -0.05282506149295   -0.21361056826722
C         3.26518763034642   -1.51182159672439   -0.07297769439913
C         4.32940866968784   -1.80577099681385    0.98117011206127
C         4.03132562421969   -1.07087124423046    2.29011383414588
C         5.11648582776401   -0.04812557589815    2.66502944984004
C         5.20655223303599    1.09393729277707    1.63309318470126
C         3.78119049373868    1.66494304318699    1.48711122368411
C         2.68150821528874    0.63443605381128    1.16957088344817
C         2.66690318776047   -0.38404200328678    2.31298317353515
N         1.54221691814085   -1.31101096240597    2.23487143081274
N         6.11442280513982    2.12157019076766    2.14419180545525
C         7.40287010588311    2.17266474362578    1.72560668978930
N         7.69597485157241    1.96554023380407    0.43574759184185
S         9.35524249482785    2.01414689213130    0.25157390523024
N         9.66206461925594    2.36185560743538    1.85567149673458
N         8.52095319581978    2.45046754534752    2.51449924136332
H         0.72100897316552   -0.69529033971260   -0.70550149570114
H         1.68612020878115   -0.08736596967565   -2.05143969150613
H         1.05108117765789    1.04521151216442   -0.77557863764353
H         3.67351629204899    0.41804668802078   -0.67633716474893
H         3.51061095563610   -1.86426855019388   -1.08387325157585
H         2.41490830085143   -2.17582885461228    0.13848478231261
H         5.32512524780774   -1.51366835037485    0.62124354699370
H         4.29737287307863   -2.89296054959965    1.14193443859818
H         4.00813837087874   -1.75645045154497    3.15272631113577
H         6.13496544625055   -0.43168301653572    2.81031794913859
H         4.97419882530146    0.29941539409353    3.69938072026275
H         5.65034228168290    0.64330294101016    0.73712066098556
H         3.73407800599961    2.43952785636695    0.70880587510870
H         3.48275781541647    2.13384818701005    2.43832698747042
H         1.73568019007689    1.19338617282165    1.21763317259848
H         2.65534554886939    0.27927559489688    3.18746231061763
H         0.65497501056905   -0.85047809243144    2.02659861341413
H         1.41324446752854   -1.80556406026664    3.11814820033189
H         5.94264722100681    2.30103739958461    3.13166745413560
