36
 energy: -51.090804686682 gnorm: 0.134581549846 xtb: 6.4.1 (79825abcba525fcdf90b791dcacef51065a7a4e7)
C         2.60596100887712    0.13340436804202   -1.34581445852535
C         3.46213299057923   -0.36244579273248   -0.16430643973721
C         2.97924230899884   -1.73996058816024    0.32447411086382
C         3.59618850856409   -2.15274389123762    1.65833600820367
C         3.53709385646076   -1.06003755852253    2.72827313273605
C         4.95563291123482   -0.58013768268110    3.07696510986123
C         5.61125654428155    0.17087677876295    1.90076491825920
C         4.68889516655759    1.32019392756812    1.44542554386344
C         3.37182226771283    0.66195543597099    0.99363059465517
C         2.72811213997981    0.15914459697445    2.28889928719014
N         1.27998165493922   -0.00737316394005    2.21485887889871
N         6.89329592673314    0.68685565670237    2.38203505579740
C         7.48728783248078    1.64900716529477    1.63413220142403
N         7.46428104488420    1.66651650062761    0.29558390561675
S         8.26360395121927    3.05341052785951   -0.18092371230189
N         8.73488017133129    3.44276905512654    1.37293243039079
N         8.27439570633772    2.60299721737039    2.28220613951413
H         2.93825976236460    1.08768331288498   -1.76921975236246
H         1.53712359241198    0.23391446718649   -1.12521253408992
H         2.73036858065151   -0.59666455122649   -2.15007285961224
H         4.53005482174411   -0.42968741757921   -0.41502082893611
H         3.15931487811068   -2.50231759723504   -0.44542648925582
H         1.89805609950183   -1.62813902461818    0.48918375029543
H         4.64070180580405   -2.39825256423228    1.42372986664033
H         3.12494384022546   -3.08535933891612    2.00040245002450
H         3.05620709675660   -1.45083162944444    3.63969216906408
H         5.56048107832462   -1.44067311207851    3.39186707472114
H         4.91691799021571   -0.03216628275026    4.03045414719488
H         5.78884842589365   -0.57583059948816    1.11738959996633
H         5.07517800230959    1.75567722844997    0.51317005671750
H         4.51413957444569    2.12275715088936    2.17965865013035
H         2.68543777147586    1.43667945277178    0.62214052498663
H         2.97601575753539    1.01993144722726    2.92327090085176
H         1.03954520701346   -0.83699801792078    2.75944973789181
H         0.82868368207215   -0.16602980712184    1.31344182656651
H         7.08068680588689    0.67757122405318    3.38284569148641
