36
 energy: -51.088450004712 gnorm: 0.120245371870 xtb: 6.4.1 (79825abcba525fcdf90b791dcacef51065a7a4e7)
C         0.88020658244488   -0.56712331223448   -0.00324164035250
C         2.40672088260314   -0.48624167177394   -0.19836036229208
C         3.00939663527666   -1.89821081193438   -0.08539156011956
C         3.43056056271074   -2.32015449120907    1.31987877974465
C         4.09959183038002   -1.20694220255637    2.12945912881075
C         5.45801670209017   -0.74720010945893    1.57496646081674
C         5.61853442800057    0.65117275378760    0.94560222522682
C         4.38565386023886    1.03751084993658    0.10312805563038
C         3.04715267582196    0.58627028386895    0.71702880567639
C         3.28373455004329    0.08459218227744    2.14435167702899
N         2.01527386852002    0.12438427891628    2.86526510239099
N         6.04783940845441    1.63656719684271    1.93866574140802
C         7.28296136059132    2.17570272406560    1.79126400569795
N         8.29844082367097    1.59289425301857    1.14189260971228
S         9.57561053360174    2.66715016474499    1.20718763761283
N         8.76465697239598    3.82996383144573    2.08945117585650
N         7.53489396101051    3.42821318975533    2.35463171932428
H         0.48256439568304    0.41781915730359   -0.27177812238919
H         0.57666250769528   -0.88967563308066    0.99925619679897
H         0.49354093751462   -1.31054471553278   -0.70546934504015
H         2.56852063873822   -0.26305049817697   -1.26224134009980
H         3.93969739379119   -1.84560804517209   -0.66688510192398
H         2.26984766295246   -2.62416509074449   -0.45234476311648
H         4.19646884355656   -3.10670734437571    1.28760336636912
H         2.55581131598118   -2.76061377394569    1.81954060937601
H         4.24864253400514   -1.52431665307430    3.17431036455025
H         5.68394763279711   -1.43890998453628    0.75276304691399
H         6.18181203053713   -0.86355871203121    2.39563317270273
H         6.43065799176894    0.50869086075810    0.22245499430337
H         4.44153052269895    0.66602863389996   -0.92975101784724
H         4.46991585359279    2.12518693268848   -0.05051492013798
H         2.44896463137004    1.50089784555845    0.83931266104120
H         3.86218136721353    0.81903588135689    2.71952929929254
H         2.11595453409897    0.05543739096555    3.87905798972904
H         1.44787072619352   -0.66455063828768    2.55376890680096
H         5.46807881120075    2.38361603767867    2.31631526979015
