36
 energy: -51.095678490316 gnorm: 0.122025457961 xtb: 6.4.1 (79825abcba525fcdf90b791dcacef51065a7a4e7)
C         1.85016155843786    0.27824595859243   -1.05831875596754
C         3.09726721244268   -0.13874864558815   -0.25476286510867
C         3.01346749776466   -1.65232122111005    0.01302913781820
C         3.89560234277677   -2.15304747706812    1.15377959182620
C         3.68691700717326   -1.29667779720004    2.40491755348956
C         5.01496105395272   -0.68965005968947    2.88653919235604
C         5.62354343428565    0.33524665687621    1.90851763028238
C         4.47894239285809    1.23781091948579    1.40425521017930
C         3.09916040884835    0.63016761375959    1.08953484661494
C         2.67246688690735   -0.15673294609905    2.33196096254196
N         1.28848007392664   -0.57121122591159    2.12440290341148
N         6.64326560809286    1.17105776205114    2.54339290303591
C         7.51897326762272    1.87436229788013    1.78416999952978
N         7.96995328315143    1.53030680091891    0.57140857107951
S         9.00519480293135    2.72062538361240    0.02289391215274
N         8.86643327745749    3.66363906063789    1.39389380091469
N         8.12169444660815    3.03115559663707    2.28235882434089
H         0.89756487754351    0.03527261343150   -0.57472147082376
H         1.76788103410731   -0.26805639336819   -2.00487281129344
H         1.88321759070915    1.34683544433299   -1.28708340022816
H         3.99943169486438    0.11502461051726   -0.82881388974654
H         3.23341324027119   -2.18382566465203   -0.92264611900619
H         1.97980226797498   -1.87056881338055    0.31716913635185
H         4.95218723889637   -2.16120078438943    0.85397220846151
H         3.52682368228626   -3.16454336713127    1.37678395752490
H         3.40348813998235   -1.96890564900565    3.23101352910610
H         5.71335842018486   -1.47446997239018    3.20563886710032
H         4.73583375478511   -0.10611772974151    3.77675873903199
H         6.02958840376561   -0.16704484673985    1.02216645219015
H         4.79284497035641    1.80281797633228    0.51532741469983
H         4.32504920248663    1.92910749649230    2.24815772660087
H         2.30414120590522    1.37781411175323    0.95427565513579
H         2.70941469110749    0.51513783189389    3.19917609109237
H         0.72592602747071    0.26866965597609    2.26862268102416
H         1.07623224234793   -1.35440541625888    2.74323424385053
H         6.44851305715531    1.46214709916160    3.49951105392269
