36
 energy: -51.090780017883 gnorm: 0.127974640036 xtb: 6.4.1 (79825abcba525fcdf90b791dcacef51065a7a4e7)
C         1.95743106055154    0.47147683426490   -1.14865305891498
C         3.05313011227516    0.13657935613235   -0.11804819439111
C         3.33227484126547   -1.37694429091191   -0.14905352010863
C         4.36252537415629   -1.71550533899884    0.92526513335053
C         4.06481328123632   -1.12429503909918    2.30515743338062
C         5.13717498258645   -0.13184470264880    2.78393279252588
C         5.05178020706142    1.11091251573336    1.87532162602779
C         3.62161223212389    1.67878792487677    1.76972094918847
C         2.62232475807089    0.60828620841275    1.29272166709079
C         2.68576333286557   -0.47089817481702    2.37726728506011
N         1.67546839678501   -1.51120452418893    2.21186177048168
N         6.06956584975925    2.10095882515097    2.22944143909883
C         7.28006370062387    2.17760975538700    1.62385066396305
N         7.55266250057333    1.41676102600400    0.55644888587054
S         9.16446316773216    1.65986440123861    0.19251066873360
N         9.47450854021057    2.68207436332525    1.47591587022824
N         8.37621183451339    2.82738714591561    2.19471340542734
H         1.00924624676421    0.08888932221480   -0.75506039533469
H         2.02628089008296    0.10655532204228   -2.17980431943190
H         1.85886355943820    1.56024030720937   -1.16236474190567
H         3.98291791221530    0.64360156893275   -0.41174761860501
H         3.54862596325362   -1.83793380169581   -1.12221443614974
H         2.42446354587721   -1.90830506143266    0.17052645407506
H         5.38511594988189   -1.39264581268449    0.68779333821754
H         4.31719824685070   -2.80757215120665    1.04437908123795
H         4.32899915217671   -1.96758043587209    2.96374104177793
H         6.15684855851820   -0.53831724661494    2.80784245224050
H         4.91046978050523    0.28457079703242    3.77696641127298
H         5.27226152492687    0.85089559250065    0.83293642752870
H         3.63380281188472    2.52367083983516    1.06688049695158
H         3.22770483797436    2.04261575487051    2.73211993630377
H         1.58861696414914    0.98049947877376    1.33995909124900
H         2.57164706111934   -0.05291451410653    3.38578339079721
H         0.72753134842807   -1.16119843244305    2.35875421443024
H         1.87544487366729   -2.20241396825938    2.93548697266871
H         5.82625402613062    2.71305460622527    3.00594745330319
