36
 energy: -51.088741401267 gnorm: 0.120655854552 xtb: 6.4.1 (79825abcba525fcdf90b791dcacef51065a7a4e7)
C         1.18245877776540   -0.37259031395642   -0.56685905077477
C         2.67864613041451   -0.23304722410050   -0.22508397172822
C         3.49267611267259   -1.53664189146106   -0.13771687297575
C         3.47475938517666   -2.19531149661307    1.23924848995747
C         3.70650877957796   -1.19620808669990    2.37518396181037
C         5.10485147197652   -0.55929473948302    2.43106018124183
C         5.44805932544517    0.57261515648604    1.44196953977168
C         4.18568966615779    1.36291064581102    1.04088320858684
C         2.80990182537890    0.67077456945720    1.02561592879977
C         2.67730684900387   -0.06729670569358    2.36074583228904
N         1.36767688238752   -0.59752860549205    2.72682720426157
N         6.41355460304254    1.53438742927428    1.97516093435198
C         7.64040538265145    1.99648531905826    1.62987368996874
N         8.32825042273948    1.53757200887302    0.57687073683058
S         9.69428698228068    2.49650299920289    0.51484537470013
N         9.28731366457468    3.55303244953553    1.74215482711281
N         8.13095065472701    3.15313919563386    2.23909680819776
H         0.87889722968157    0.48437716747894   -1.17825085816670
H         0.56123703054803   -0.42790831673619    0.33436477371003
H         0.96479265624176   -1.31121817851984   -1.08349106880991
H         3.08602489212458    0.35292732692286   -1.06085462041791
H         4.53490203474432   -1.19982355054067   -0.21944709519882
H         3.13198476794581   -2.19481999215249   -0.94102272758648
H         4.35784083120215   -2.84715551097837    1.27911247900951
H         2.51234548696705   -2.71208879786895    1.36396130986142
H         3.60883710656080   -1.76135295950536    3.31631534906147
H         5.85363080590882   -1.36068357614146    2.48235555024951
H         5.05951721800680   -0.09967506104169    3.42986317815322
H         5.81765936474552    0.22975297969298    0.46799365727832
H         4.36160223925836    1.78708220605167    0.04233742156376
H         3.99312988735288    2.23503127513211    1.68591953196497
H         2.06232470968392    1.46941706889268    0.91325723898209
H         2.85405219388379    0.68627665425741    3.13902974244115
H         1.11852935253423   -1.45113451291233    2.22488223355044
H         0.64173968684275    0.11965484971057    2.73441582705551
H         6.00273704467421    2.16456547214559    2.66140291615668
