36
 energy: -51.083848167065 gnorm: 0.128904316969 xtb: 6.4.1 (79825abcba525fcdf90b791dcacef51065a7a4e7)
C         2.14543036762380    0.15155147374541   -1.37713893739218
C         3.15636808271732   -0.06461813633829   -0.23427642882143
C         3.15493766404159   -1.58048527295204    0.03364461497519
C         3.96129211550046   -2.05543744676953    1.23963516910603
C         3.65977292300960   -1.21724249981872    2.48413516506418
C         4.92303379584748   -0.46905860461117    2.94079250774012
C         5.45289663096148    0.50291807960425    1.86756433105464
C         4.24848349723446    1.39653298693950    1.50720922791874
C         2.96078956655205    0.64004331830720    1.13085119242601
C         2.53049890457260   -0.19883791313018    2.33751217923999
N         1.22087765520510   -0.84296476807310    2.32063402648294
N         6.49745722193333    1.33547509754299    2.46524495585654
C         7.49816602731335    1.90903583110225    1.75283316281314
N         7.54014120261244    1.83443153286524    0.41671201421393
S         8.87817314780466    2.70639645153925   -0.07195899960204
N         9.38917678211468    3.06288446256644    1.47722202080000
N         8.56235202149839    2.56262730551208    2.37730254394225
H         1.16232540003256   -0.27231710080747   -1.14436678865040
H         2.61555675350492   -0.17396453097243   -2.31212633643812
H         1.87765305694570    1.21061572540568   -1.42172230041371
H         4.14264465304081    0.30188627079097   -0.55171816620285
H         3.51632757028451   -1.97003928586281   -0.92760785227674
H         2.14313247932981   -1.96605352317031    0.22386647646518
H         5.04771652767978   -2.06681358024723    1.07877753245649
H         3.68066700234151   -3.08165011080441    1.51710536004389
H         3.26216156131206   -1.83570928488040    3.30514724167784
H         5.76162299955833   -1.15503346366997    3.11892852812686
H         4.81878941444245    0.11986425523277    3.86448934568283
H         5.98736955225648   -0.09555520474703    1.11993065112140
H         4.41301876857378    2.07194342478573    0.65591061716634
H         3.97055854040474    2.08717651659214    2.31931436840089
H         2.26776507027874    1.48784461213167    1.02948112103015
H         2.58919230666279    0.36939265891418    3.27479904834454
H         0.53150823364224   -0.14900945235838    2.02761164713513
H         0.98265165967906   -1.36443693349776    3.16485536211920
H         6.41119829170500    1.54556041872914    3.45784106319113
