36
 energy: -51.089332879182 gnorm: 0.130796417045 xtb: 6.4.1 (79825abcba525fcdf90b791dcacef51065a7a4e7)
C         1.44550994827950    0.32159436095640   -0.84350276534088
C         2.79262435669837    0.09246553462579   -0.13101277498698
C         3.19959996381104   -1.39109613875721   -0.18626411644429
C         4.36308002135002   -1.74815909135143    0.73515904493549
C         4.16726552109943   -1.13784543187517    2.12492123461859
C         5.22502160342210   -0.07056386736433    2.45081291696336
C         5.10407330924301    1.19856361294133    1.58363413238825
C         3.63637474261742    1.63971995559175    1.75757812450950
C         2.62167455924210    0.56080057449216    1.33521056319615
C         2.79609864978077   -0.52382109605957    2.40201648227626
N         1.67642553402353   -1.44906381409418    2.54537030205768
N         6.06499573729112    2.24911266383204    1.92194606901005
C         7.35409716210244    2.17087031481443    1.50961581567858
N         7.82482194706289    1.25969488037649    0.64896203958567
S         9.45905215859110    1.57767727796086    0.51618226205184
N         9.49497463889728    2.86087477201128    1.58402308069169
N         8.28162736548282    3.05193175275966    2.06912819593782
H         0.89664772786837    1.17032788187171   -0.42072087024667
H         0.88852849733778   -0.59734478081604   -0.62785612592474
H         1.59483939258293    0.43775631092388   -1.92031129408402
H         3.59625678244579    0.63267151201535   -0.65080959969550
H         3.43263916727547   -1.73342354949638   -1.20354777428698
H         2.25581857376043   -1.92082506931174    0.00676690647508
H         5.22176655283086   -1.22094571777139    0.29809364768120
H         4.45444352315241   -2.83276709000934    0.89050014388344
H         4.23688768334622   -1.94082408048613    2.87660928212705
H         6.19734358759127   -0.57132908702640    2.35411755261766
H         5.19659204830535    0.13848084836198    3.53081522415335
H         5.31843756039813    0.93311778466731    0.54134136067171
H         3.42763659192284    2.48696690869324    1.08932556808255
H         3.46936829508597    2.02549185371480    2.77592702168937
H         1.62438977836694    1.02251748468353    1.37479029256649
H         2.78470284993749   -0.00713256321791    3.37038665200165
H         0.70935754253837   -1.12496069192116    2.49634984328560
H         1.75190590295800   -1.99686271048735    3.40304951505818
H         5.96408976679458    2.84043733416282    2.74473195058178
