36
 energy: -51.093619480916 gnorm: 0.119305225778 xtb: 6.4.1 (79825abcba525fcdf90b791dcacef51065a7a4e7)
C         2.11956248119952   -0.27043084484028   -0.91359224243637
C         3.40948358283947    0.10449074513286   -0.15834631320323
C         4.27428581286438   -1.15492697923012    0.03038879150222
C         3.92132565548775   -1.92821376466460    1.29831895186900
C         3.60256366289044   -1.04922670272111    2.50994483215085
C         4.69307115694218   -0.25107399347808    3.24335377482376
C         5.30944824305485    0.76131354327361    2.25721853232911
C         4.15002931473084    1.63529633916446    1.73672243638290
C         2.98584390018284    0.81434935714785    1.15123463264211
C         2.43819219958774   -0.09329357123990    2.25629769632751
N         1.13719967061765   -0.74038693061253    2.11852738984347
N         6.43516656973562    1.60446016258284    2.66137464306512
C         7.36567392450784    1.86889181848021    1.71155750540754
N         7.43398938112795    1.33419221911708    0.48600587217108
S         8.74019315760527    2.00095713135539   -0.31318616924189
N         9.24840255124188    2.90044987565635    0.99860888660881
N         8.43908427038740    2.70550573895862    2.02381231393310
H         1.62185099721094   -1.08233326528087   -0.37189070530857
H         2.47713407398129   -0.65873564937777   -1.87408318901024
H         1.44415758292677    0.58530489195341   -0.99638125009243
H         3.98384964124486    0.81106473995661   -0.77372668864133
H         5.31215978690027   -0.79753234349037    0.06844090575817
H         4.24848805168611   -1.79537867180281   -0.86278142473435
H         4.76194951606091   -2.55315639531885    1.62865334425264
H         3.09637720923278   -2.64640788083759    1.18647160492988
H         3.22095516419920   -1.79032071168104    3.23092429395279
H         5.49642600410483   -0.93697872454990    3.54282241067732
H         4.24716662954229    0.23023842426041    4.12676780687072
H         5.78989953986581    0.19500697905897    1.45021721657334
H         4.46621824919013    2.28566607634357    0.90907263894009
H         3.74175183124911    2.32745125223503    2.49036464732066
H         2.18768799210765    1.52775299404535    0.89958360138573
H         2.36528025464605    0.60622561290034    3.09902796557584
H         1.21527421471308   -1.63507765144002    1.63262702783301
H         0.49668200523496   -0.17002213132499    1.56552140976556
H         6.18707748262035    2.46279562595840    3.14977564211961
