36
 energy: -51.089596849752 gnorm: 0.133277147065 xtb: 6.4.1 (79825abcba525fcdf90b791dcacef51065a7a4e7)
C         1.17498810348082    0.02990343072793   -0.64244736267491
C         2.63185681690129    0.01795931141712   -0.14020245796767
C         3.26972144509739   -1.38239003362429   -0.18247857944685
C         4.46705302150218   -1.66101765786571    0.72248770710209
C         4.21601446850037   -1.02809938165255    2.09312948330169
C         5.25387094802617    0.05819640688339    2.42017451917740
C         5.16489257721256    1.26828305948482    1.46881489038617
C         3.71916227029798    1.79857153577009    1.38122263990812
C         2.68454256890025    0.66345563948924    1.26654229624212
C         2.84943264292822   -0.39842819458399    2.35746688358879
N         1.79058051885604   -1.40286074863586    2.34199145789036
N         6.03081377379975    2.33252969625402    1.97777438635255
C         7.33965763584695    2.10776103341279    1.70514373580314
N         7.70609825535203    1.36794756675882    0.65113006820067
S         9.35314113458772    1.61510140730981    0.52616440561274
N         9.55457465710107    2.53925535330682    1.90222191753454
N         8.35695477113602    2.74299752999534    2.42013803429079
H         0.69639582665779   -0.76521741138129   -0.06014581025639
H         1.19847134333181   -0.35214884973202   -1.66941645403275
H         0.77355820705846    1.03945151663792   -0.52007029090594
H         3.23271891183831    0.70224465931110   -0.75547028312983
H         3.61713224035155   -1.62029063515554   -1.19690961180220
H         2.48582925563575   -2.06404474993147    0.17732252175889
H         5.43374481111288   -1.26430732477503    0.38418241057108
H         4.61597638192612   -2.75025056990403    0.70680139041220
H         4.36079458889402   -1.83243066125989    2.83255268566170
H         6.26251295670131   -0.34826368187903    2.26865789811968
H         5.02977376864660    0.39339059990733    3.44405838782407
H         5.52309495105271    0.99129576511060    0.46993711900035
H         3.42196040065309    2.43119369211629    0.53303593632650
H         3.47525339325581    2.35658618852239    2.29930413226232
H         1.70128485867355    1.12717167391346    1.43236621280799
H         2.82624505394054    0.15147371509902    3.30715513463597
H         0.82226428479166   -1.11647819184699    2.19028456658902
H         1.98442366553713   -2.03654319546864    3.11804937923886
H         5.87494621592833    2.68759193918803    2.91929423220581
