36
 energy: -51.090225376384 gnorm: 0.125351127419 xtb: 6.4.1 (79825abcba525fcdf90b791dcacef51065a7a4e7)
C         1.60972937580424    0.33645244930411   -0.98417226540822
C         2.86714183548569    0.01520668098389   -0.15316429158030
C         3.20200215556008   -1.48123975278952   -0.01842874030724
C         4.07294804094389   -1.96995935674121    1.13604378021617
C         3.84010221934798   -1.19301466818352    2.43388996908894
C         5.06522470384087   -0.33202258072253    2.78304714827453
C         5.29096060873214    0.79338718544127    1.75357726134231
C         3.96054656685799    1.55324903547782    1.57574884635913
C         2.73939860686512    0.67623414234574    1.24150294068661
C         2.53401431266002   -0.41209145193633    2.29898456694808
N         1.36662824228322   -1.26902679991090    2.11687530201406
N         6.31735210653791    1.74844358061754    2.17294341890089
C         7.49871127779471    2.05712712947022    1.58385462516777
N         7.89166326957167    1.57082638623757    0.39994255735466
S         9.38646659244006    2.27766795602627    0.16459240114403
N         9.53783714881413    3.04291927237182    1.64095537491577
N         8.41086657319113    2.83677395567915    2.29782887177690
H         0.67144121643395    0.19168983675883   -0.43736154623937
H         1.51948631973098   -0.29440231484233   -1.87583330382048
H         1.73024534913395    1.37733728334925   -1.29617248957872
H         3.69477198513300    0.41668249506391   -0.75456414204643
H         3.47925187068993   -1.86598975157479   -1.00911606539391
H         2.26433815527000   -2.03122539207254    0.14558047561698
H         5.11467282568996   -1.92070818294635    0.79150577306368
H         3.82319007099885   -3.02990790416594    1.28764412517398
H         3.71736999969957   -1.93380166419697    3.24062925473206
H         5.92698258046370   -1.00911528198593    2.84971549501216
H         4.97741673765534    0.14438565750828    3.77109464814477
H         5.56942860013282    0.28379827187930    0.82322117184537
H         4.02146799501871    2.26801721050306    0.74306912515329
H         3.95131527979077    2.15197962353112    2.50050937874938
H         1.97751419496139    1.46546723315731    1.16424218133510
H         2.42036576328585    0.13570925437622    3.24335527822522
H         0.55423453679361   -0.80770826939528    2.52902575424999
H         1.38594132860025   -2.13711592168800    2.65301223768618
H         6.24250216325168    2.08468669896761    3.13115088954729
