36
 energy: -51.092901657707 gnorm: 0.115530663610 xtb: 6.4.1 (79825abcba525fcdf90b791dcacef51065a7a4e7)
C         1.82112082951264    0.18580905937983   -1.11832947243408
C         3.00404112220416   -0.12199940332640   -0.17981331553550
C         2.95342107723054   -1.64684266005447    0.02494875294687
C         3.78957950280099   -2.15069652296810    1.19847788312360
C         3.71238359472418   -1.29994764158323    2.46833296156143
C         5.09662427883502   -0.66960970010223    2.69348817472508
C         5.52184579585778    0.43609396724199    1.70661531407505
C         4.35945353893344    1.41648655949813    1.44837322023703
C         3.03950773392052    0.68447083399035    1.14182201536445
C         2.68632523449530   -0.17326286868824    2.36020516126481
N         1.31254656809556   -0.64503214019376    2.21717365106854
N         6.62553327376878    1.10065272836659    2.40067278400833
C         7.45924538560403    1.92522873478702    1.72029115950876
N         7.84017934093993    1.71225148439995    0.45455916492556
S         9.15634348666144    2.68868239759776    0.13246246373880
N         9.07288914343182    3.50784739584282    1.58510637425641
N         8.14266826232910    2.96693259013457    2.35070525487112
H         0.92650979993692   -0.22396520579045   -0.63656296036799
H         1.93770700734552   -0.36705172885570   -2.05744263292855
H         1.69191254484111    1.24110059213262   -1.37323031875099
H         3.85827858338055    0.07101266672381   -0.84378686893815
H         3.55453318363325   -2.01467488718648   -0.81750301508267
H         1.92249574408593   -2.01895344136443    0.11052599969742
H         4.82244588861731   -2.15878095072540    0.82505552372630
H         3.35321290581476   -3.14710468550731    1.35850144894223
H         3.51916841850701   -1.91469843660663    3.36242809810732
H         5.83500138196969   -1.48211638445163    2.68092120227531
H         5.14261493645776   -0.28901913170185    3.72496698636068
H         5.90470609398854    0.04579833684046    0.75589190349134
H         4.63147611911809    2.07232599573428    0.60942222654692
H         4.19756117941269    2.10862325001469    2.29008764616878
H         2.19852739212735    1.39293623462127    1.15425935324815
H         2.83962378023876    0.42892545011474    3.26502908937764
H         0.64571032518831    0.12416765443374    2.29671856019027
H         1.18212302590336   -1.28229953867558    3.00347796531689
H         6.29043505260649    1.48978874772368    3.27993716179626
