36
 energy: -51.088785344620 gnorm: 0.137795252680 xtb: 6.4.1 (79825abcba525fcdf90b791dcacef51065a7a4e7)
C         1.47558575788702   -0.21754392608430   -0.68337670875627
C         2.84586630301634    0.10684966275275   -0.05731036615991
C         3.83833521691565   -1.06784483332613   -0.12612248246807
C         4.45467910024333   -1.65139236618997    1.14265357562261
C         4.17158389069515   -0.92155793548114    2.45774427755497
C         5.06266438257702    0.30270510385174    2.72476227498709
C         5.02533655562885    1.29225593206294    1.54293835379049
C         3.58487763352090    1.84361745780789    1.55258039794314
C         2.62727089157473    0.65030577643467    1.37630171201160
C         2.73267190499143   -0.40867110283289    2.47737439674417
N         1.78438992220455   -1.49922590985608    2.27306195607817
N         5.95801005298692    2.37744157536215    1.84948758199687
C         7.25971940194753    2.14332078453349    1.55172786054922
N         7.64122983218562    1.05668102557633    0.86893119408103
S         9.25960855487333    1.18670246338593    0.47727266493821
N         9.40790144395549    2.62933190818907    1.30491978498749
N         8.27793944894928    3.05408587369934    1.84046746697762
H         0.92132539076894    0.72560806763773   -0.74339816746701
H         0.91373674356716   -0.97308031445511   -0.12242095059462
H         1.58291191559102   -0.53710176871260   -1.72341196053864
H         3.25334181908323    0.92979637374171   -0.66109724663841
H         4.70538988882423   -0.78258333965117   -0.73702619488750
H         3.36935119455982   -1.88685918565860   -0.68991890682158
H         5.53380381282863   -1.79705732077992    0.99914697719863
H         4.15697118419526   -2.70347972970178    1.25812969005888
H         4.29860776759889   -1.67818973851218    3.24896485177842
H         6.09183849833050   -0.06593973282936    2.82687696392548
H         4.76235066620884    0.81463263936086    3.65139851674436
H         5.16161604794028    0.93638170795797    0.51455655389426
H         3.55421513929529    2.60479004057588    0.76034524330067
H         3.25941064711800    2.45026924947499    2.41269106363764
H         1.62775404787356    1.09863498106214    1.27990224891440
H         2.48806633467962    0.14878575480665    3.39074590632125
H         2.02021830077893   -2.06835602256358    1.45872653349561
H         0.91728583497978   -1.01220990114351    2.04428166332892
H         5.83898954279677    3.03073796882079    2.62140819406450
