36
 energy: -51.091449304205 gnorm: 0.130374198189 xtb: 6.4.1 (79825abcba525fcdf90b791dcacef51065a7a4e7)
C         2.15976999337501    0.40991114814372   -1.12752235390491
C         3.30426481024265    0.16499499764397   -0.12502207958123
C         3.47601398407216   -1.36297657138825   -0.05125201996320
C         4.42538671486782   -1.81644817457517    1.05475666712596
C         3.89049244425063   -1.27075908990309    2.38079451508314
C         4.92484938398724   -0.43080420811639    3.14807843931872
C         5.17368807490564    0.74004545983407    2.17622332827613
C         3.97803868091396    1.66139890658447    1.85913541153787
C         2.89058880410428    0.76144987638552    1.24300054870585
C         2.65103251195301   -0.39200806750028    2.22128991651806
N         1.41149695836754   -1.10547589671520    1.93007286884750
N         6.31260327794867    1.56543354154591    2.58006340765675
C         7.30525933949194    1.88852488439473    1.71509721288056
N         7.40729501892588    1.48025615622529    0.44409257270509
S         8.80038189487895    2.14467865557285   -0.19411065572357
N         9.22759830767425    2.86304296789390    1.25143737241875
N         8.34287920461695    2.67829521464950    2.21434013723109
H         1.22162973722692   -0.01850732998613   -0.75780179336383
H         2.48614709140079   -0.06301020398961   -2.06079847401229
H         2.07964802558545    1.49710830975481   -1.21054200873736
H         4.26981231653224    0.57705490420926   -0.45023102532112
H         3.65027945883875   -1.70120701124920   -1.08158837838751
H         2.53170302730341   -1.81968440248606    0.27782508711402
H         5.47168309315786   -1.49373051451613    0.96850238702184
H         4.46644602235151   -2.91411707720061    1.00690585049147
H         3.70010800197680   -2.11615926751382    3.06175639991472
H         5.88294790284411   -0.90981679566335    3.38915924785855
H         4.56834658938773   -0.02109529707238    4.10513498546443
H         5.45331291896744    0.23222151996729    1.24524937885099
H         4.27277746767968    2.45367636128887    1.15672106239125
H         3.55973266631439    2.10545076350653    2.77651404101249
H         2.01202212167612    1.40937306220600    1.11017734121733
H         2.55128815778593    0.03804936413363    3.22624725521683
H         0.55422374069027   -0.55917003806607    1.83364242869518
H         1.22874628623633   -1.77367814421071    2.67940754741572
H         6.15945463136781    2.27235285468161    3.29674608195983
