36
 energy: -51.087455466591 gnorm: 0.143744062176 xtb: 6.4.1 (79825abcba525fcdf90b791dcacef51065a7a4e7)
C         2.44538971565394    0.30890249259965   -1.22916735943753
C         3.40276512323919   -0.16186415097886   -0.11711061509163
C         3.23542454235346   -1.68492761312267    0.03091552404284
C         3.96112581985563   -2.08784915993929    1.31201355833553
C         3.58233586882640   -1.23061920903959    2.52194736499361
C         4.82076965119778   -0.52593504030097    3.09974066873989
C         5.39118382262200    0.41462889373543    2.01933371640548
C         4.32024759438557    1.47217769526511    1.68213858050884
C         3.10119367072726    0.71454567458527    1.12358784011077
C         2.56518741046585   -0.11360297797427    2.29481354513588
N         1.26577015660296   -0.73046245676434    2.04724273988863
N         6.58575020657061    1.11183536163504    2.49724004923695
C         7.39999454891654    1.84581588185581    1.69961897841909
N         7.22704240840870    2.07321386961283    0.39159559452101
S         8.52420436838238    2.96350186210924   -0.16894861326450
N         9.32363102823276    2.87331442863248    1.29425113232963
N         8.66016508274763    2.17860870075424    2.20047310071164
H         1.38581800428936    0.21130624968677   -0.96815857243434
H         2.64405674559415   -0.38202382387792   -2.05641168132487
H         2.70117801317576    1.33858524164940   -1.49305226271004
H         4.46735569542472    0.04221643032141   -0.29831285243568
H         3.61372521539524   -2.11089045784853   -0.90812949742785
H         2.17558170424213   -1.87274220829409    0.25464706702518
H         5.03392650954578   -2.03994217288476    1.08152234266808
H         3.76103292948520   -3.15064511308993    1.51020585387150
H         3.18821861244177   -1.82439370710596    3.36263768891314
H         5.56213749126511   -1.31520174531595    3.28128294491212
H         4.69429661716336    0.06441748734996    4.01974139614776
H         5.77609318206509   -0.10720127961463    1.13484190344731
H         4.62195524502401    2.20256257681907    0.91828593511149
H         4.13169232676179    1.99743649070276    2.63203102013849
H         2.30967836612145    1.44142073806474    0.89017393793085
H         2.39187381962724    0.62703382668955    3.08617762336800
H         0.52346703091814   -0.07191009145903    1.80649152608882
H         1.05406638047367   -1.40498940634786    2.78317033173245
H         6.89692011428304    1.10876257538190    3.46676949055690
