36
 energy: -51.097472503826 gnorm: 0.121784293917 xtb: 6.4.1 (79825abcba525fcdf90b791dcacef51065a7a4e7)
C         1.79424415969899    0.62744404407170   -1.04763363309750
C         2.88886817768639    0.08736477181786   -0.10690427913080
C         3.03934927640656   -1.44400646816121   -0.15042959612333
C         4.04239884546895   -1.88886092023451    0.91079438963719
C         3.99984473335499   -1.31086826747867    2.32726128321597
C         5.20852662887813   -0.42408164231865    2.66908089426602
C         5.26236417585261    0.79121207179499    1.72172947527075
C         3.90798191029368    1.52825556536484    1.68391425959997
C         2.73355307885945    0.58954355485964    1.34982693832986
C         2.74406379110883   -0.45289399455396    2.47148464495350
N         1.57819970573340   -1.30919818600925    2.27707224623286
N         6.20196981362207    1.79180142760937    2.22911724864069
C         7.39073804290670    2.08717041985490    1.64816297059024
N         8.03222298986651    1.15159068031789    0.93701244184583
S         9.44739642701540    1.89342037950266    0.45077740256563
N         9.09748895755323    3.38002134103034    1.12587191143206
N         7.93738211322818    3.36741261629015    1.75677165811696
H         0.84019238168216    0.13425304473734   -0.83109111208736
H         1.96286503552328    0.35591942895135   -2.09597628015597
H         1.78985905972924    1.71938484311997   -0.99326899202817
H         3.83174752677594    0.54032725408163   -0.44400921089467
H         3.38700191868765   -1.87249569568687   -1.10011159978859
H         2.07632914143887   -1.83529826307800    0.20745294240925
H         5.06992365308619   -1.83349388183217    0.52680239028089
H         3.87515546549693   -2.96887496518806    1.03101046650058
H         3.92051262328194   -2.18262462929587    2.99689105969815
H         6.14001621873889   -1.00205203431866    2.60741112663600
H         5.05635187772217   -0.09916397064611    3.70936173232891
H         5.56802940563559    0.51027736113068    0.70662743388146
H         4.01211975029785    2.31253053099996    0.92100631412389
H         3.90522088653869    1.91822388510621    2.71428439670411
H         1.78078508621991    1.13349177190378    1.42518848252900
H         2.69242347076104    0.04131697453886    3.45022177533908
H         0.70775859206141   -0.77605170488600    2.30452024506889
H         1.54259738656998   -2.10825362553448    2.91082092759087
H         5.77120160782550    2.55964425297004    2.74066357504411
