36
 energy: -51.087699639338 gnorm: 0.137754040710 xtb: 6.4.1 (79825abcba525fcdf90b791dcacef51065a7a4e7)
C         2.05615031561910    0.22733253223267   -1.22016331307215
C         3.16521254552452   -0.13846391118675   -0.21466193192118
C         3.07487382986709   -1.64723566589891    0.07702902087649
C         3.87923408193643   -2.11061555476377    1.28883921181434
C         3.69441864668712   -1.21384197681733    2.51517734925761
C         5.02014915914792   -0.54983447819699    2.92221020522039
C         5.43727995308751    0.42576491317941    1.80349677877487
C         4.27602214563171    1.38791423382048    1.47982505358859
C         2.96825426837874    0.67465209883162    1.08857325649763
C         2.62072147627991   -0.14184679169036    2.33655284683733
N         1.32348567477423   -0.80084909951744    2.22171664668977
N         6.58856171779294    1.14969313886926    2.34382847956370
C         7.47865512153573    1.94423022523838    1.70011648748205
N         7.51813672087806    2.02688431018652    0.36439311114167
S         8.91074233329345    2.85071280654077   -0.04962123801594
N         9.30801721020938    3.10066207351386    1.55283571506526
N         8.47930137848126    2.57880545747821    2.43880247653261
H         1.12098020004236    0.38422384658831   -0.67136025661040
H         1.82731918110248   -0.59815631250075   -1.90381922496307
H         2.29047000792972    1.09627202566097   -1.84092727218279
H         4.14914027441539    0.16605311943902   -0.59805704521209
H         3.60121471185880   -2.09265399639555   -0.77791488761985
H         2.01986705866725   -1.94642909316455    0.15475266349992
H         4.91487095129638   -2.35054750146725    1.01277485848805
H         3.58188901019184   -3.10921905916627    1.63987986259056
H         3.27878931094144   -1.81603259649567    3.33935906135250
H         5.70181757031313   -1.39104837715724    3.10445494340506
H         4.91949851671084   -0.02940734337494    3.88654309080754
H         5.68654343764431   -0.18138460615896    0.92484732292443
H         4.71866419754093    1.90103155893192    0.61452795298836
H         4.08779728399466    1.93650489783973    2.41650280993712
H         2.21159908886714    1.46426851186842    0.97322710811931
H         2.51703834399737    0.62058819191378    3.11935568176211
H         0.59894372253812   -0.14178810750902    1.93302326929053
H         1.12634498875358   -1.20703226086032    3.13689166059930
H         6.60388570013569    1.31127835497635    3.34905426343732
