36
 energy: -51.092174233185 gnorm: 0.122295303593 xtb: 6.4.1 (79825abcba525fcdf90b791dcacef51065a7a4e7)
C         2.50538895052018    0.60469981798336   -1.17274134021657
C         3.34999039937783   -0.00121656306028   -0.03503625376681
C         3.30197786940235   -1.53982288487781   -0.03031006425041
C         4.06877774766901   -2.02345076543789    1.19782768910810
C         3.71422903148444   -1.30661768995420    2.50270715436946
C         4.92628962912756   -0.53362450382907    3.04817370552048
C         5.35731761018843    0.64281885239824    2.14955927231800
C         4.15872225407918    1.53400276402705    1.76462445380322
C         2.95033609808092    0.71059896078518    1.28100604326657
C         2.53659043433577   -0.35474282039445    2.30020377027219
N         1.24980401656828   -0.94422542025151    1.94385685433926
N         6.48932174804954    1.41518443808588    2.66287999809879
C         7.35539865995809    1.87857052699541    1.72847928173650
N         7.53174679063939    1.36798483951465    0.50342784668263
S         8.78212979450863    2.21825865435572   -0.20581713603765
N         9.01082235105006    3.27569411753707    1.06607130422331
N         8.12757926339943    3.00722727015756    2.01044863955534
H         1.44362401073654    0.35373036535045   -1.07267946326987
H         2.92495671315570    0.44001064766857   -2.17175150318716
H         2.42454996930254    1.68653395366650   -1.03705999498051
H         4.41605846293245    0.25294492313467   -0.11711586758554
H         3.90370939161573   -1.92205567977932   -0.86588087578577
H         2.29689915340441   -1.98412854458660   -0.06203124488835
H         5.13527496730874   -1.85185364284579    0.99918045295430
H         4.05678452606884   -3.12009938652366    1.27574153043541
H         3.44342337401860   -2.03865591803475    3.28080813045836
H         5.80948910134014   -1.15695912288021    3.24036746567863
H         4.54908024652069   -0.23308230034195    4.03726436894894
H         5.78312642913230    0.10993185415613    1.29077757043876
H         4.44642472946526    2.16690319993647    0.91337550477333
H         3.95727993604475    2.15849865072760    2.64959418105085
H         2.09444669890418    1.38620357154688    1.13839591063163
H         2.39480004562617    0.23248554360846    3.21666213782848
H         0.56001243848653   -0.20810167854210    1.78581977377444
H         1.06270670937601   -1.59144174464038    2.71034243718678
H         6.45153590673967    1.91057737249944    3.55168905595336
