36
 energy: -51.090971211036 gnorm: 0.120107903304 xtb: 6.4.1 (79825abcba525fcdf90b791dcacef51065a7a4e7)
C         1.12741059045598   -0.64573487388615   -0.45639099444119
C         2.59913358305536   -0.23732510063011   -0.25122763797284
C         3.50888603652102   -1.47261579953030   -0.12456152740906
C         3.43886896612931   -2.16834912564634    1.23236627615625
C         3.71028860495041   -1.15095148558204    2.34299595492630
C         5.12288278922375   -0.54406470030051    2.32276692196568
C         5.48551235874558    0.62670000492171    1.38728746988571
C         4.27542339995721    1.41001370280561    0.83854457462395
C         2.90702843387137    0.70978746987920    0.93475328073159
C         2.76877607924994    0.05171447073869    2.31051808049199
N         1.42269688957960   -0.32523852524321    2.73036256116894
N         6.37113046233367    1.51349795377605    2.14276753356590
C         7.52827289071407    2.07638401032242    1.71603426755755
N         8.20263358993281    1.57901067048695    0.67180974385083
S         9.60545055159808    2.46665796536251    0.48840168364036
N         9.32211563393509    3.42565387123019    1.82564452905122
N         8.12104405980151    3.18695089071887    2.32010313742018
H         0.44544136007837    0.07646253761949    0.00587699661677
H         0.90704110931245   -1.60105489392192    0.03348846371131
H         0.93001867073988   -0.70630127845744   -1.53001923657994
H         2.98220249778609    0.22878359943032   -1.16983371045662
H         4.56748692741328   -1.23887287385899   -0.30088426864288
H         3.23891285470611   -2.23738909414908   -0.86674295038344
H         4.16955954113706   -2.98717467136079    1.27639604637354
H         2.48738704775355   -2.70359734690345    1.36291933065136
H         3.43946862728113   -1.64915413088687    3.28803958474889
H         5.79252008681524   -1.39256057208130    2.12998090239201
H         5.26290199052238   -0.30821820280060    3.38845164525102
H         6.16955805873533    0.35602971878446    0.57389532400608
H         4.40825120139007    1.80775976929569   -0.17738617289932
H         4.17813414946588    2.30036425159535    1.48007106725323
H         2.24004675386309    1.55893825104077    0.72641631980840
H         3.15109745527658    0.72800512477471    3.08595274305112
H         1.09620261227829   -1.26078153964065    2.48373114827520
H         0.68275863342921    0.34206266225371    2.50991978275752
H         6.05966129691523    1.75131747138748    3.08258257933317
