36
 energy: -51.083574121805 gnorm: 0.131410225483 xtb: 6.4.1 (79825abcba525fcdf90b791dcacef51065a7a4e7)
C         1.13777143761660   -0.13069177577796   -0.24775759133453
C         2.67772795549732   -0.18642492798293   -0.26469253183268
C         3.10876035405472   -1.65776075867854   -0.12678382653953
C         3.22015204047735   -2.24695410007281    1.27701222190485
C         3.82740443969199   -1.27623528879648    2.29249944348788
C         5.34896011170225   -1.10045921342482    2.15791064379543
C         5.90039974788354    0.12252167466527    1.39794747494877
C         4.89243255718053    0.76825481702162    0.42529893337089
C         3.39310804611668    0.71317458313651    0.77324973588478
C         3.22917829218198    0.12476326734917    2.17745827390706
N         1.87315132236670    0.11677490796402    2.71729075964298
N         6.47606431474776    1.06042322507930    2.36253604974324
C         7.41268379270150    1.94910922505082    1.94913336630614
N         8.06119580739817    1.66129482121126    0.81372924691381
S         8.96564197582558    3.03469505754856    0.52183783324330
N         8.50788470938384    3.84657755605677    1.90728914885334
N         7.67258618753491    3.13379373218946    2.64094912925772
H         0.74281671110683    0.89073597327680   -0.21552516484665
H         0.74272329428881   -0.92957434755571    0.39013308910862
H         0.82341361565693   -0.54366054094757   -1.21001816443392
H         3.11161386583535    0.09834808397843   -1.23344613807774
H         4.09997145610341   -1.77266516545486   -0.58575965974795
H         2.43981522878801   -2.24208532550828   -0.77460646298104
H         3.94327784746589   -3.07152298989841    1.21786999056226
H         2.25548610933769   -2.60193226310073    1.66722077919722
H         3.56134264938168   -1.64184144623884    3.29758651245559
H         5.74691132108705   -2.05748048697415    1.79559739921420
H         5.80515225936397   -0.92060451378974    3.14302681895013
H         6.71110759497946   -0.19822018417957    0.73261662885963
H         4.96283978371133    0.42845862965917   -0.61755378206720
H         5.11889107970882    1.84639799353164    0.43362631007712
H         2.91058019104417    1.70134833420979    0.77556226514119
H         3.77478831759321    0.74583379242943    2.89955152477683
H         1.22170210670003   -0.36567728755233    2.09638812106682
H         1.45705751736786    1.03527980860820    2.87416394172042
H         5.84721404009053    1.30579892939173    3.12487559589217
