36
 energy: -51.083171075413 gnorm: 0.131673499476 xtb: 6.4.1 (79825abcba525fcdf90b791dcacef51065a7a4e7)
C         1.75659621613944    0.37698478270546   -1.04276500993387
C         2.94510476336495    0.13427889895216   -0.09229124677926
C         3.34041019026855   -1.35283044103652   -0.13560796010580
C         4.56005609635913   -1.56789746589073    0.75681028767166
C         4.13382501411927   -1.13012683472202    2.16000263477999
C         5.15590485352009   -0.08979537868948    2.64704098856812
C         5.03230633764922    1.18468055606247    1.78811928990429
C         3.60101600482085    1.75437954086795    1.71153319851252
C         2.65071357717734    0.59552442654800    1.35648704920610
C         2.76450818628006   -0.50332568237618    2.41690288529895
N         1.63162369462681   -1.41597197414306    2.29882844713449
N         6.01102114266068    2.18253773525092    2.22156884149663
C         7.23102768445243    2.18312243907266    1.63037996394021
N         7.62763658630657    1.25165846637591    0.75423860005336
S         9.24818487120837    1.42333903796816    0.38845082265814
N         9.40977201821121    2.70489996251776    1.44659138064478
N         8.27454782493519    3.01178855374163    2.04752962963480
H         0.96090580964153   -0.32388664802598   -0.76708614258251
H         2.04349957144334    0.00994415872422   -2.03480763576580
H         1.42840232580209    1.40724587037247   -0.88102349701568
H         3.87916170603067    0.60386135572234   -0.43121034558194
H         3.46929110949540   -1.61851873323060   -1.19351189560327
H         2.65235904735898   -2.13809535259128    0.20869075123625
H         5.45555530238826   -1.01275224948377    0.44662074023466
H         4.76400896156522   -2.64774432038525    0.72236340529069
H         4.12039597687030   -2.00817634329380    2.82596472148104
H         6.15737613426894   -0.53328159687917    2.57022276784803
H         5.06742546308347    0.29030649684690    3.67592719687787
H         5.35831978424780    0.95044525113651    0.76751321739083
H         3.38549117361756    2.44931402669583    0.88777623185899
H         3.23617999580205    2.32548297077332    2.58014189548689
H         1.60838256540214    0.94344467306120    1.31378532139546
H         2.83799002555569   -0.04625733062432    3.41215486993522
H         0.81093203852734   -0.82779362739465    2.45107080539628
H         1.64438286452597   -2.17433696448202    2.98155405412085
H         5.79205199692463    2.74281975011493    3.04312836314960
