36
 energy: -51.079803271067 gnorm: 0.132126622104 xtb: 6.4.1 (79825abcba525fcdf90b791dcacef51065a7a4e7)
C         0.94554433613013   -0.34034858147249   -0.05454049821520
C         2.48316031461431   -0.40693061246737   -0.13304599855486
C         3.03614420168212   -1.84312684680987   -0.09860465797714
C         3.22921761561417   -2.30629986665508    1.34305888540841
C         4.05400527745052   -1.31615244513113    2.16864856372773
C         5.49277065599606   -1.09806153238740    1.67212695676042
C         5.79319200643767    0.26803798478746    1.02341195111133
C         4.61914473049793    0.99413261254932    0.33536105228033
C         3.20801597660416    0.59147849830351    0.80297526913587
C         3.26120154261400   -0.01090405708458    2.20981897502730
N         1.98615660752347    0.17113201902134    2.89641599573178
N         6.30099069810711    1.23853323206785    1.99385495771097
C         7.28415403466714    2.12341770267215    1.69671875703239
N         8.25894944144900    1.80845623984831    0.83467431055297
S         9.41749417214347    3.00281820579913    0.97863703175058
N         8.59165886995489    3.85467471247193    2.15358672988162
N         7.44396468461094    3.27944137363109    2.46333826613211
H         0.63499879579897    0.70465936511370    0.05437553268580
H         0.57418351950440   -0.76127196476469    0.88678601140345
H         0.33292637200408   -0.70921388913587   -0.88155143726760
H         2.74981310875979   -0.09396194502935   -1.15225312340729
H         4.00718057041000   -1.90764215145975   -0.60780744579329
H         2.44395258828477   -2.62997498284779   -0.58725187597864
H         3.70823490975826   -3.28519972563692    1.20660328786186
H         2.27252774436976   -2.38607382542798    1.87900032548586
H         4.12279486763446   -1.72828064806836    3.18848931861103
H         5.82545004848316   -1.79013294104976    0.88734201321012
H         6.16845801574578   -1.18299186668605    2.53650321925395
H         6.65394153218362    0.16507234400977    0.35162623163689
H         4.61499839064775    0.96588522577353   -0.76334061636025
H         4.72191632278355    2.05946270194247    0.59661831743143
H         2.62223451520779    1.52093811759712    0.75511263242854
H         3.89884792596230    0.67264486733480    2.78514982771455
H         1.40933505614934   -0.67115379306127    2.91872787955118
H         1.46130712737282    0.78958268717533    2.27718556885128
H         5.69162575086622    1.63572212813617    2.70641290807144
