36
 energy: -51.087200253357 gnorm: 0.120776197084 xtb: 6.4.1 (79825abcba525fcdf90b791dcacef51065a7a4e7)
C         0.76421055279184   -0.68508689938168    0.28663964660239
C         2.21388582245182   -0.48573183834362   -0.19663905036967
C         3.02358237771887   -1.79334041815597   -0.13192242052019
C         3.39645986803571   -2.21501602479827    1.28700406913125
C         4.06272119403719   -1.11429012639278    2.11571585237300
C         5.48220771951540   -0.79557778143067    1.61809795198110
C         5.63030458731104    0.52875971881232    0.84252750516136
C         4.40974085251865    0.94372709519819   -0.00425502965616
C         3.01742106107413    0.60175333554880    0.55839693342151
C         3.20020305177385    0.14200385569012    2.00757730526461
N         2.00356292596471    0.11138651483781    2.84268635986451
N         6.08639559630060    1.62592314470263    1.69674853291400
C         7.34379073317737    2.13096210278517    1.65416064394813
N         8.46608966486134    1.63965562322725    1.11415092651364
S         9.68557941976031    2.74713551705008    1.38944111557778
N         8.73969955227013    3.78377553216179    2.29434940234468
N         7.48390748844335    3.37575249202893    2.27100735040335
H         0.34525049548987    0.25399700125682    0.66470938819271
H         0.70769867026384   -1.48438168122724    1.03437970474206
H         0.19240035253844   -0.89167162413636   -0.62202162759009
H         2.10148173491106   -0.19038960315462   -1.24924273703680
H         3.98565925692900   -1.74149476865456   -0.65925668051237
H         2.50356782683576   -2.59683046100464   -0.67283424024662
H         4.15254713911045   -2.99616869540508    1.13062260460715
H         2.66481289987127   -2.69581573920041    1.95211830989366
H         4.16975279228630   -1.32471606822034    3.19224823288048
H         5.78952464942135   -1.62202215086670    0.96382597701680
H         6.20226546993704   -0.75850770227293    2.44939544854555
H         6.50346752179500    0.40478183442229    0.19060443428665
H         4.64529120719188    0.49937847345273   -0.98151179551505
H         4.46967238138301    2.03508433450089   -0.14243292392765
H         2.32780412757880    1.45607261964202    0.49600346200063
H         3.80168467390492    0.91156106784493    2.50841576717984
H         2.27407844438161    0.21490434698911    3.82185525054661
H         1.45608304196635   -0.74905918555225    2.80672120226110
H         5.36793868000143    2.23736792703839    2.07986525847435
