36
 energy: -51.090696528360 gnorm: 0.131223103049 xtb: 6.4.1 (79825abcba525fcdf90b791dcacef51065a7a4e7)
C         2.22975380790344    0.52910297153701   -1.12894411937641
C         3.27252553380475    0.16114311146224   -0.05558873776372
C         3.29329903357176   -1.37807892061150   -0.05463297667801
C         4.10218339184561   -1.94011796399908    1.11156533236856
C         3.82882785660842   -1.25271176064576    2.45134676939926
C         4.95201870682939   -0.40714068679120    3.07391803609490
C         5.22668643882169    0.72386250626704    2.06263102197314
C         3.99670472372243    1.64764139583650    1.94952941365996
C         2.90137842010930    0.76608770951195    1.32087921861020
C         2.59657255989955   -0.36045888587640    2.31228665519204
N         1.48514567549346   -1.20196788779560    1.87998467602202
N         6.30607030412026    1.61727841703407    2.48479051307542
C         7.36422918561259    1.88164441727529    1.67960047724324
N         7.77517310749403    1.22324048867879    0.58864823509498
S         9.03602682480247    2.06264176499194   -0.11498878924240
N         9.04734067083446    3.23470359221812    1.07426026807252
N         8.15014654890408    2.98710310948682    2.01115837624240
H         1.22722498673977    0.38591196296468   -0.71088297020596
H         2.43324996971557   -0.08443315195028   -2.01401116066316
H         2.34563451067094    1.56926606467274   -1.44507994511133
H         4.25988654926172    0.48424205143667   -0.41414349958166
H         3.66055114246307   -1.69997021466599   -1.03843843501262
H         2.26176490714834   -1.75544113217181   -0.00845860504488
H         5.17994890986333   -1.81281788114716    0.94263108587024
H         3.82692318340817   -3.00195201904549    1.18635067621488
H         3.65988059132302   -2.00112378592810    3.24254399615824
H         5.76022327691216   -1.12177330945086    3.27795573412800
H         4.60885216736568    0.03264883969494    4.02246153599814
H         5.57122090334594    0.28773256862191    1.11718171927877
H         4.11534402865844    2.49447624832849    1.25905429247451
H         3.59961590125531    1.94825192677282    2.93222942437938
H         2.07302213422743    1.42982347631231    1.03346561348787
H         2.37755106517541   -0.00318355150737    3.32679220231321
H         0.64653403694151   -0.66938317380593    2.11609977996632
H         1.40331640777126   -2.09110878368437    2.37407672368084
H         6.25020179660253    2.08213235132231    3.38901007036622
