36
 energy: -51.089135885294 gnorm: 0.122084657406 xtb: 6.4.1 (79825abcba525fcdf90b791dcacef51065a7a4e7)
C         1.25877820063069   -0.36759798996523   -0.55161291888860
C         2.76746832233188   -0.29353870220468   -0.24627968033835
C         3.43957777784412   -1.66672589403345   -0.06666155270603
C         3.21753847625954   -2.23558622912595    1.33237265694435
C         3.79828209396095   -1.28724143377778    2.38386862527175
C         5.26560910799344   -0.86633713468513    2.19965676392646
C         5.62214423898505    0.38520962730582    1.37271945760508
C         4.45599813389029    1.21030483212429    0.79105334715021
C         3.04025145156690    0.62987796531157    0.96667667079178
C         2.93458133485014   -0.02769396249493    2.34556587228842
N         1.55360324209009   -0.17042743309606    2.79591987149474
N         6.49915066788692    1.21637358375033    2.19825340605532
C         7.43263034695007    2.06524803208642    1.70232149651932
N         7.90941600223487    2.00027165871622    0.45292125688452
S         9.28493564751216    2.94745837367990    0.43760122658620
N         9.08373900211519    3.47261571960637    2.00982892148622
N         8.05378988080739    2.91487593564717    2.61988834942675
H         0.82940292265643    0.63909413175732   -0.50110889871297
H         0.79220275052364   -1.14346497695990    0.06605906990215
H         1.05625843784233   -0.77136056062762   -1.54723884110283
H         3.28964349565472    0.19394503847208   -1.08146162769999
H         4.50369654240897   -1.67053034759010   -0.33868739565242
H         3.01242232835909   -2.33110752193578   -0.83133940931018
H         3.72814484383245   -3.20799145906786    1.32673461671555
H         2.14595554368920   -2.31207994721517    1.56627712854102
H         3.75190449141710   -1.74304681118080    3.38623947699214
H         5.73486036274145   -1.72410667585275    1.70009651164474
H         5.60267326710062   -0.77674175746205    3.24333931561317
H         6.26842290806335    0.08754943305566    0.53814773176626
H         4.52894041354924    1.31441537923633   -0.30064296181759
H         4.51952366605018    2.22066627405058    1.22565634049320
H         2.29326914474744    1.43693502871891    0.96814898151678
H         3.37663873587329    0.53978101114831    3.17465872503644
H         1.06056529929557   -0.67698334490529    2.05904743534140
H         1.13697362223325    0.76112768544396    2.79152332568387
H         6.05359066093502    1.51771278647431    3.06283101995576
