36
 energy: -51.093894187101 gnorm: 0.114003629897 xtb: 6.4.1 (79825abcba525fcdf90b791dcacef51065a7a4e7)
C         1.84818603022335    0.22202822651991   -1.24382766459591
C         2.95418637783218   -0.13391230409339   -0.23144004320774
C         2.90511421289319   -1.64277471538778    0.06949698757470
C         3.96315813871935   -2.05177892304968    1.09099536154441
C         3.87407882258509   -1.27352458158451    2.40577668504268
C         5.15483535563606   -0.45371581172229    2.63319569918523
C         5.27405442102402    0.82443201916428    1.77912489220242
C         3.95304032302751    1.55326211660687    1.45858961827515
C         2.77716516190390    0.62224955663567    1.10843120064074
C         2.70267502247698   -0.29563969567155    2.33188252121993
N         1.42309048372184   -0.99520483182786    2.39158323911681
N         6.25260449849292    1.76687383629655    2.32292937986134
C         7.45357865068433    2.08120582890707    1.77815686210194
N         7.75612930811962    1.77195123914508    0.51112404441173
S         9.26685161695826    2.38078971640225    0.14168462783272
N         9.50848067847462    2.94886382120445    1.69316052519701
N         8.49558737755250    2.67337347183176    2.49453034544272
H         0.88265949329366   -0.13738746587757   -0.87110565303746
H         1.96298987716567   -0.28283619081476   -2.20980537210056
H         1.77651299328472    1.29568643980638   -1.43729724833940
H         3.92102260566870    0.14740441180704   -0.67180903354448
H         3.23329612143248   -2.20171380446231   -0.81720761006553
H         1.88141472139060   -1.92421050352990    0.35485680330943
H         4.94363005321145   -1.75713183702408    0.69327619244386
H         4.03954436673959   -3.14668287695010    1.15582649908143
H         3.60564396923306   -1.87623251702867    3.28858055727423
H         6.08363197291215   -0.97220369641652    2.36110570500163
H         5.18212466175783   -0.30417792955283    3.72306109944571
H         5.65218331089251    0.60588367843525    0.77312147119203
H         4.04935174063262    2.25985365425758    0.62228048905229
H         3.61464093438647    2.19112813658951    2.29067034468519
H         1.84659555552266    1.20485342899180    1.04567102779700
H         2.82865038468158    0.39584134796916    3.17498499500011
H         0.69051684679275   -0.29705194233777    2.52790899984629
H         1.49762068940000   -1.73312704374626    3.09251874135204
H         6.08014491976652    2.14519876052490    3.25241925925921
