36
 energy: -51.095966872582 gnorm: 0.119876468581 xtb: 6.4.1 (79825abcba525fcdf90b791dcacef51065a7a4e7)
C         1.29453890879008    0.19238155021286   -0.85001217361523
C         2.63404257931537   -0.02356097721014   -0.11928797410349
C         3.07816243426577   -1.49660018726413   -0.16978524289396
C         4.43059277908703   -1.64831736027833    0.52167290975156
C         4.31179259145509   -1.09874277908318    1.94509103595712
C         5.37800482199824   -0.02067352013677    2.20024057825607
C         5.05938743020824    1.28306361847664    1.44125147363407
C         3.59809093345535    1.76820329879386    1.53217161678576
C         2.62875713042508    0.59389083905882    1.30095761015369
C         3.01490770654177   -0.41965428189900    2.38193707377551
N         1.95315568121706   -1.38902675205623    2.63351566732138
N         5.94311280078534    2.35842353043713    1.89303760930972
C         7.27127937657148    2.22154526531097    1.65817911198970
N         7.70919643931518    1.26226013510134    0.83322568907342
S         9.37415698267008    1.38925811117758    0.79816038138509
N         9.44026613513316    2.70959982157669    1.81820822279500
N         8.23151586605124    3.07561082086679    2.20421352594391
H         0.53172854385199   -0.53170783896458   -0.54316085581679
H         1.30828725237300    0.05390511785808   -1.93712587129404
H         0.99958663536936    1.23082758674919   -0.67697331251906
H         3.31209371683795    0.59213740431768   -0.72674034783500
H         3.15491299617791   -1.73666666574877   -1.23882160635162
H         2.38091464178938   -2.06336949982235    0.46363013186141
H         5.28659443886819   -1.24375098281133   -0.03502253142232
H         4.66225253497794   -2.72026088815803    0.59992526877500
H         4.59269524168044   -1.88825731354907    2.66092433029826
H         6.32419708074089   -0.44809760896317    1.84309261652436
H         5.45700559315581    0.21175135564624    3.27292433288623
H         5.40932043702162    1.14183180176499    0.41149995841624
H         3.44352322088896    2.65498608356011    0.90154846223582
H         3.50551983682284    2.17019618694080    2.55372820056195
H         1.63274702999931    0.97483660775220    1.56960253904626
H         3.23502392306690    0.07557288633653    3.33647177881706
H         0.99086260953229   -1.05075803317055    2.68076625011271
H         2.18268939839048   -1.96980971728858    3.44060917966680
H         5.53954228878745    2.92554470512274    2.63622527371660
