36
 energy: -51.098577874186 gnorm: 0.121001700767 xtb: 6.4.1 (79825abcba525fcdf90b791dcacef51065a7a4e7)
C         2.40892398232985    0.57476496990955   -1.23140181547820
C         3.34367805267221    0.12213913806624   -0.09288351199274
C         3.26687492861323   -1.41526064989597   -0.08103959532146
C         4.06352995947933   -2.04177584889320    1.06045938441854
C         3.77105736573781   -1.32505636663574    2.38070103788368
C         4.95198203685169   -0.55073918353825    2.98897164778515
C         5.29995295700339    0.65202899799929    2.08920661272393
C         4.07349071992740    1.53924889911941    1.79315626138871
C         2.88066207425534    0.72663882061628    1.25565969432630
C         2.62941080527822   -0.31024422962403    2.35413553020809
N         1.40070373579172   -1.07397344520363    2.16103217393743
N         6.41088361184613    1.44568607889414    2.61591506494814
C         7.36837677252015    1.96782418260503    1.81062051002781
N         7.75920572845680    1.24165071034654    0.75588248292026
S         8.89177171474054    2.09986369375154   -0.12173727289857
N         8.96537501428451    3.32444467549013    1.01102670290966
N         8.08158374143865    3.15652271672270    1.97785479718447
H         1.35240279555588    0.49360755071644   -0.95297891135886
H         2.55278748024567   -0.02515947005347   -2.13725772210849
H         2.60486220422251    1.60356368475888   -1.54523443198925
H         4.33892734410993    0.48355700011248   -0.38731906617637
H         3.61093954910009   -1.71709673206987   -1.07947631666984
H         2.23149488079640   -1.78223835301841   -0.03730680420446
H         5.13671303298164   -1.90976127087435    0.86765659028979
H         3.80432106901078   -3.10251208017786    1.18891974435452
H         3.45472362848543   -2.09090707460967    3.10738016642668
H         5.84786884596993   -1.16837192707003    3.13540420918604
H         4.73927527191968   -0.13152242043238    3.98392193979334
H         5.75096246648558    0.36204299770662    1.13250063601074
H         4.35908858314277    2.35952761990750    1.11970455617775
H         3.69362302706964    2.01007287918033    2.71390102347934
H         1.97277016515806    1.33603147896223    1.13861745788078
H         2.63550581756799    0.13889805479761    3.35567023304727
H         0.53443989610680   -0.53427075045746    2.12981850513010
H         1.25814531309178   -1.67750129625950    2.97148005840933
H         6.16808456312107    2.00303601010870    3.43275850295723
