36
 energy: -51.097620765073 gnorm: 0.116571843393 xtb: 6.4.1 (79825abcba525fcdf90b791dcacef51065a7a4e7)
C         1.71796090161144    0.56847726617599   -0.93442400154957
C         2.87291026929175    0.05442353526508   -0.05311824032977
C         3.03861921257946   -1.47585304702986   -0.07388050880232
C         4.03334912400580   -2.05551244712964    0.92847057571074
C         3.98381536281279   -1.29538509915303    2.25588072035947
C         5.16354389856720   -0.34974394305590    2.53542771624285
C         5.19628744963417    0.84076925792366    1.55618401590446
C         3.86071572818094    1.60601137714379    1.65450564578349
C         2.70962298736619    0.62050815302050    1.37910300488716
C         2.69231365047840   -0.49720161641494    2.42568212371227
N         1.54802257506805   -1.39499315433065    2.30377873946174
N         6.13777429526084    1.86261734311002    2.01543253122272
C         7.42433414290647    2.06211549796175    1.63743137790275
N         8.16855979909185    1.19801776636281    0.93599660058308
S         9.58078629799518    1.96183062114143    0.47593366048727
N         9.23642205274734    3.36392755464361    1.31480653997808
N         8.05092208765936    3.28384769523084    1.89119044887781
H         0.72709770171670    0.38308672938813   -0.50528148716647
H         1.66161193612112    0.17064534991542   -1.95409821123796
H         1.78925177885577    1.65454849657792   -1.03775045728453
H         3.78075910664484    0.49571287103708   -0.48775653108855
H         3.24941164816781   -1.70986419504051   -1.12610037243324
H         2.07210653798499   -1.93101965786179    0.18549100505838
H         5.07724862490663   -2.04384871446701    0.58720762338183
H         3.78644313487124   -3.12077253102183    1.04297379532233
H         3.90498075824603   -2.03844493992294    3.06600662591820
H         6.12148776164940   -0.84950604574522    2.34021703398852
H         5.14774929309212   -0.00393764666392    3.57997614621663
H         5.55719062308432    0.53478205652439    0.56678599014510
H         3.82183933710456    2.45610617678540    0.95895699912343
H         3.80317149863550    2.01289454455559    2.67669951325975
H         1.76630594364400    1.18460739914545    1.41475271097391
H         2.65764889377781   -0.04753552162379    3.42640004640327
H         0.66140363838423   -0.93727353907146    2.52072554556142
H         1.49635067946614   -2.26747110218378    2.83056784647172
H         5.70396402295706    2.63012287139273    2.52491012075794
