36
 energy: -51.094736137659 gnorm: 0.115682272458 xtb: 6.4.1 (79825abcba525fcdf90b791dcacef51065a7a4e7)
C         1.19111992050836    0.00419468773489   -0.74926408652595
C         2.62553878872463   -0.03719232348643   -0.18749125421385
C         3.10335615284221   -1.49970289769879   -0.13860066857197
C         4.34641880983810   -1.61644474743788    0.73967426308638
C         4.21767735448888   -1.07607239794435    2.16574866145513
C         5.30308984617824   -0.04448395936309    2.51481613561378
C         5.17686954606917    1.22512981594615    1.64910181916378
C         3.72146233370560    1.71541985483473    1.50620368260645
C         2.67275373224378    0.62683188126750    1.21079868273417
C         2.83494985871901   -0.43994819313504    2.29734146527107
N         1.67629905447825   -1.31995503492859    2.18154688389951
N         6.14716972482833    2.18505309325351    2.17687544018028
C         7.43257024031095    2.11665296215302    1.75144912485136
N         7.80844798108812    1.29212471810601    0.76584445916865
S         9.41436219724467    1.66065903151758    0.49257963386501
N         9.56439581447690    2.80497917418290    1.69930726566929
N         8.39283299529392    2.97962913030053    2.28324160691528
H         0.65070376849262   -0.77469759095784   -0.20006464614316
H         1.16621224986854   -0.29121141297798   -1.80439240569158
H         0.75592039621394    1.00358955222780   -0.66487964475553
H         3.32357028617453    0.54532267995998   -0.80495745259292
H         3.47969541630053   -1.74973481943477   -1.13970710527979
H         2.27478835395409   -2.16337754669471    0.14707103187983
H         5.11622760221380   -1.07314479733403    0.17527884506376
H         4.69177946034772   -2.65890583429703    0.68625618889209
H         4.37618397458886   -1.92279100270708    2.85320777283948
H         6.25813553966117   -0.54367622926867    2.30452920309672
H         5.26207676070784    0.19686390429507    3.58765442733428
H         5.49317354988855    0.88577427707468    0.65533258478141
H         3.67217758221347    2.46778569778667    0.70653057618309
H         3.37590347733536    2.25812187822329    2.40052415373029
H         1.70280254556182    1.10543718263576    1.40943788619644
H         2.67169323815149    0.09579421478613    3.24135678653998
H         0.85163086891262   -0.72047396448983    2.23821370970886
H         1.73311789305316   -1.79577605060801    3.08252440880581
H         5.90069186371097    2.73362586741556    2.99854450616079
