36
 energy: -51.079234620112 gnorm: 0.130293158017 xtb: 6.4.1 (79825abcba525fcdf90b791dcacef51065a7a4e7)
C         0.94185795961695   -0.48288014787109   -0.21978288575890
C         2.48015572776566   -0.50765717679980   -0.30858123222496
C         2.94055726426400   -1.92469606473673    0.07828838934224
C         3.18190071634194   -2.08399707784465    1.57714688912598
C         3.98235448571956   -0.97774555526857    2.26833873343458
C         5.43814840126963   -0.98630362960539    1.77363283930659
C         5.79329483663813    0.29862757763451    0.99894916325165
C         4.66370369180903    0.81953522363697    0.08697688289379
C         3.20396302129996    0.58385981456701    0.51789670334169
C         3.22864452498278    0.32912235924689    2.02766560952054
N         2.01349372133323    0.26504110718950    2.83363968478903
N         6.27233289600892    1.21641652381532    2.03319581919990
C         7.42393483077086    1.90078217465882    1.82492372074566
N         8.21190035371831    1.83924632006123    0.74424285430415
S         9.24924880086404    3.14107469175058    0.88063479906310
N         8.76633318471339    3.61934880063086    2.40582876640843
N         7.80176705629491    2.81371597234324    2.81154947461890
H         0.52016979657953    0.50890863500487   -0.41695520094234
H         0.57930648310201   -0.61647466399651    0.80583393029100
H         0.57162414825722   -1.11106712255681   -1.03441010320071
H         2.59261489059086   -0.46258196377395   -1.40089865840368
H         3.92400017477435   -2.09926834047080   -0.37857686227967
H         2.21852117485833   -2.62374059212644   -0.36735450894094
H         3.75573601641159   -3.00221005467431    1.76132229668226
H         2.24254789517335   -2.21546384394789    2.13319127129217
H         3.94599958315313   -1.10529311060951    3.36244417909532
H         5.75798063980812   -1.91208702674081    1.27748948694521
H         6.06193366989550   -1.02346753308458    2.67940524724131
H         6.73429835095696    0.22196279829148    0.44089665570090
H         4.92503351229067    0.45405589185341   -0.91606449834509
H         4.86002770836068    1.90259860654468    0.13362573755083
H         2.66042915551343    1.51764900379418    0.31311742629833
H         3.87023942986515    1.12574051812053    2.42590305520165
H         1.56585011719213   -0.65264733721395    2.82226365024909
H         1.37525102121836    1.02902550242217    2.60921016471648
H         5.79111529441991    1.47872793649643    2.89136003841916
