36
 energy: -51.090467387050 gnorm: 0.133913032772 xtb: 6.4.1 (79825abcba525fcdf90b791dcacef51065a7a4e7)
C         1.35888794407463    0.31860376805513   -0.90413174758585
C         2.66168698414497   -0.02456429186493   -0.15592759034022
C         2.90668275836242   -1.54404484428368   -0.12776990574805
C         4.12674050129196   -1.86458923226855    0.73182925049590
C         4.14444562410424   -1.12706926966831    2.07273032604482
C         5.31759939064874   -0.14091796184019    2.19666158486348
C         5.15771589323717    1.17092483843532    1.40242122310536
C         3.71571124359613    1.69052904044314    1.57460857302900
C         2.64611952289084    0.63201615773825    1.24658157668680
C         2.81216466003159   -0.42838743490227    2.33877011828732
N         1.73315821607783   -1.40632285704442    2.43715478368792
N         6.08897789017130    2.15442660191914    1.95645689748462
C         7.42209734205426    2.12951536030428    1.71131906994062
N         8.05443502480730    1.23165722447273    0.94545533300553
S         9.67232389274906    1.63512610106149    0.85006069029127
N         9.37064588235183    3.12925176239249    1.53178580836418
N         8.17169941305534    3.25098596770416    2.07192422150669
H         0.56743447748074   -0.12612722846162   -0.29081406378138
H         1.30620952370436   -0.37518196392712   -1.75092999763469
H         1.25814160212853    1.36664410811153   -1.19870106163682
H         3.47489736211895    0.39783589522995   -0.76264267109575
H         2.86105725204590   -1.91647907559905   -1.16003555064864
H         2.03828577544451   -1.99747455391284    0.37111400235870
H         4.98050718691832   -1.61834783306486    0.08625181058976
H         4.13240743014758   -2.94103360096231    0.95563275141230
H         4.40339401021142   -1.85643595945622    2.85734919188446
H         6.23846077576902   -0.69603085587410    1.97442346017538
H         5.43863808802654    0.18158633934273    3.24177090583917
H         5.40226623882376    0.98676192925584    0.34929879374803
H         3.54932996300737    2.55885571094415    0.92170236873158
H         3.54683659376972    1.98647127735449    2.62229415677951
H         1.68170060225765    1.13263244702078    1.41571280056927
H         2.81435142988553    0.13285464553516    3.28208350395501
H         0.87183613948310   -0.90365019765659    2.65649648094563
H         1.98091169321685   -2.05330622178461    3.18643794761330
H         5.80685375586918    2.56688216040601    2.84364902587918
