36
 energy: -51.088500162072 gnorm: 0.131533531932 xtb: 6.4.1 (79825abcba525fcdf90b791dcacef51065a7a4e7)
C         1.02399315351199   -0.25144595132450   -0.31781012944091
C         2.52670795772611   -0.00792050327832   -0.07822167720785
C         3.42217890160595   -1.24583366776762   -0.26621001858548
C         4.31534272855958   -1.64184679635004    0.90666345712394
C         4.31259060961983   -0.86199999955030    2.22351430875857
C         5.34678266646060    0.27520066738015    2.26045310231528
C         5.08265618818385    1.36741596073180    1.20469984544734
C         3.62410085484646    1.83582043774043    1.38422136700614
C         2.62280974436396    0.66780141402753    1.31193530411032
C         2.90309288937964   -0.31791891125441    2.44978382388422
N         1.98414217478998   -1.44539223477847    2.57071997235877
N         5.98730543273566    2.51148563551797    1.32384052009280
C         7.29248345078290    2.14487046568132    1.31890860611861
N         7.86889304658725    1.03891610309667    0.83191331701336
S         9.51451456364858    1.22618357716520    1.04711645790930
N         9.45510970001284    2.72684741470338    1.77694476931189
N         8.18441456976742    3.07923065891547    1.84906482856565
H         0.51639017339091    0.69030733043181   -0.08162632745282
H         0.62977514210946   -0.97795123342190    0.40188644043154
H         0.86759402269849   -0.60209811661089   -1.34147600161037
H         2.93026755655780    0.70934752322043   -0.80657764621861
H         4.10381816031266   -1.03049283938112   -1.10009102100944
H         2.82709435764068   -2.10023453959697   -0.61901374639547
H         5.37056336073962   -1.72041734897150    0.61228502643478
H         4.01676118796764   -2.67051565041232    1.15474010294886
H         4.49107231590165   -1.55952851508619    3.05793327288832
H         6.29534052763099   -0.23365324156674    2.04404730096300
H         5.43120992815375    0.64889803844552    3.29202237516381
H         5.21782591923786    1.00107973244820    0.17985126581590
H         3.33863748147768    2.54413311922231    0.59380107712808
H         3.40131346788120    2.41541311956678    2.29426730937102
H         1.62117680555275    1.11968161942393    1.35508146246871
H         2.80893789978422    0.24254622499934    3.38885315948840
H         2.05908683568174   -2.02126790994707    1.73082903147733
H         1.00724837726690   -1.30503147373391    2.83028087333998
H         5.86180876270799    3.06687293203498    2.16800818649547
