36
 energy: -51.089194052869 gnorm: 0.125232970602 xtb: 6.4.1 (79825abcba525fcdf90b791dcacef51065a7a4e7)
C         1.18425129006083    0.18759004013480   -0.84566815157240
C         2.51508513710044    0.03880079303343   -0.08303965070518
C         3.02463936744303   -1.41165719045751   -0.16154542974136
C         4.24053380579394   -1.66843413635640    0.72494579923629
C         4.16898954370397   -1.16502670157333    2.16845794723732
C         5.27941346187451   -0.13050534639103    2.41517129340195
C         5.14886118218673    1.13876028915743    1.54958888961785
C         3.71205589064114    1.69554210623002    1.48177277271935
C         2.60712297080653    0.63137954950355    1.34480900636455
C         2.82166121432085   -0.47659709149249    2.37982774800206
N         1.71831858017542   -1.42478114285744    2.26203878650624
N         6.12494289954439    2.15730624294411    1.93857317555972
C         7.45964964148047    2.12772352168766    1.70276953402976
N         7.94501147375867    1.30479051341769    0.76481826170009
S         9.59002872553413    1.59078595332454    0.72511294307175
N         9.57310339826568    2.89819008876750    1.76365914258703
N         8.33968620963879    3.09474060014273    2.19271774608742
H         0.48410172211901   -0.58676344254666   -0.51323753466705
H         1.34728836144159   -0.10190301006703   -1.89007881749613
H         0.67323611276414    1.15403443477771   -0.83309019317040
H         3.23030243961719    0.61701642198267   -0.68467672549186
H         3.32188194042947   -1.63292670032011   -1.19549320385370
H         2.23010955077176   -2.09813869734248    0.16412697905185
H         5.16478698828717   -1.28261773109043    0.27414163008230
H         4.51229580501218   -2.73237688830773    0.66995610232502
H         4.38471336083120   -2.02509661927784    2.82298053222195
H         6.29110816703513   -0.53384841697082    2.27619642338375
H         5.15086405166721    0.10283070135400    3.48285206673940
H         5.44574349736223    0.85918729148712    0.53150856261723
H         3.76089209886054    2.40732136887133    0.64574299671407
H         3.50140550978741    2.43478859448694    2.27100442964538
H         1.66375461457626    1.09564151067688    1.66705569427522
H         2.80915022647951    0.00747289809617    3.36489493663383
H         0.81804692298624   -0.94339047405987    2.28302164981723
H         1.76024522046335   -1.87968783442812    3.17456088872326
H         5.79835711834533    3.00794232906376    2.39308770083235
