36
 energy: -51.090645651958 gnorm: 0.121444416051 xtb: 6.4.1 (79825abcba525fcdf90b791dcacef51065a7a4e7)
C         0.98842754154160   -0.37036074983933   -0.40463537576613
C         2.42802412813623    0.06554330597340   -0.06936181864714
C         3.35650138592124   -1.15184670925904   -0.22913777127272
C         4.38548542820678   -1.62549491542044    0.79411655381594
C         4.37396902179282   -0.93903932847032    2.16192898964699
C         5.38619650305525    0.21785414041226    2.19563470177482
C         5.07365348620478    1.32270243541221    1.16658704027602
C         3.62592452809914    1.79935133530172    1.40302109999823
C         2.58012590876156    0.67001897247825    1.34832865889984
C         3.00929966775313   -0.31205380768253    2.44205869469153
N         1.98147769355041   -1.31594382266309    2.69911685464695
N         5.98799055674674    2.42848547021941    1.45418352732970
C         7.32739294923713    2.22206890084527    1.41793403447195
N         7.80809070007346    1.06241506532628    0.95244493369444
S         9.46557919738000    1.15328538117319    1.13663541784462
N         9.48506008991698    2.73477877682201    1.67205056937944
N         8.25269967368762    3.17863841572258    1.84032944309777
H         0.28490593425675    0.46930042960211   -0.42385151112099
H         0.56164591620341   -1.11360048917333    0.27847006659424
H         1.06334140984843   -0.87764287293162   -1.37022442236874
H         2.70196190827760    0.83964646497642   -0.79981275341702
H         3.91621749288713   -0.90559285863783   -1.14151828397184
H         2.63175295113113   -1.94806121192530   -0.45135188499398
H         5.39502291505850   -1.59809135460867    0.36236931553299
H         4.20559178764819   -2.70805150668816    0.86165964160187
H         4.49337513991357   -1.71879116643287    2.93159514963028
H         6.40348380132643   -0.18183941847304    2.09124412473037
H         5.36763690424877    0.63931718403590    3.21196993274588
H         5.35998464238899    0.93915769472133    0.17982689774898
H         3.36485999198226    2.59915829021238    0.69583331364906
H         3.66213663522320    2.24532279101597    2.40977015663992
H         1.61893134832512    1.14978252472060    1.58339841841082
H         3.15721477218051    0.28867382409698    3.34874772192296
H         2.06929194992585   -2.13483461710306    2.09548384462585
H         1.01935056576508   -0.97650335357128    2.67707009371362
H         5.60039274726656    3.36967960129215    1.48147857678174
