36
 energy: -51.097278977402 gnorm: 0.120421574068 xtb: 6.4.1 (79825abcba525fcdf90b791dcacef51065a7a4e7)
C         2.05191311608063    0.16614391223997   -1.20666794361481
C         3.16413173756234   -0.18862779286499   -0.20070281072072
C         3.17050559889336   -1.70583367930399    0.05945590634358
C         4.13640880828070   -1.99412055162243    1.20580748090804
C         3.82842901939006   -1.24591781749312    2.50488635316419
C         4.95466871627952   -0.29518395265440    2.94287303782038
C         5.30229822915435    0.75108253624446    1.86500841746500
C         4.05266765327013    1.57288612432060    1.48807780815654
C         2.91592375764443    0.60708336568845    1.10452080326736
C         2.65418594744815   -0.28621360120340    2.32042226089252
N         1.34610070255927   -0.90026421443421    2.11512509842849
N         6.25438935572097    1.70822578974005    2.42970252159182
C         7.38009960473820    2.05454722954460    1.75831701152977
N         7.45088100687813    1.95507024471989    0.42503468046978
S         8.97526486526132    2.48968605775527    0.00089855383904
N         9.50934302335788    2.73945908173183    1.56312267592716
N         8.54409531512424    2.45398195404246    2.41801508212651
H         1.03967106458351    0.01284058131797   -0.81653087290942
H         2.08311057576802   -0.52778627100490   -2.05441114878906
H         2.23843476827170    1.15929333075847   -1.62400875934029
H         4.16086894238296    0.08585057207193   -0.57354697715016
H         3.52090035236479   -2.21668285064974   -0.84752696470419
H         2.12937510941313   -1.90679424714554    0.34973010392863
H         5.05251367627059   -1.63402422572284    0.71856514013193
H         4.25454391922897   -3.06592533087555    1.42058919446903
H         3.66004060151990   -1.97317362134914    3.31568910119510
H         5.80778853034544   -0.95778117049718    3.13953848474221
H         4.66254087967091    0.27009973144937    3.84066396271024
H         5.75021276015728    0.26135027849978    0.99189755762691
H         4.33561029492551    2.22271040066623    0.64805857925916
H         3.65316194034323    2.24428294933128    2.26484482734742
H         1.98070822404517    1.12897699386443    0.85487142421327
H         2.64248679969604    0.36883669204747    3.20110938556420
H         0.62317843815704   -0.18651037047176    2.01214383527840
H         0.98880623917638   -1.52692785956435    2.83694768520488
H         6.42948892318432    1.76272196561808    3.43129814879901
