36
 energy: -51.095048406694 gnorm: 0.121744141347 xtb: 6.4.1 (79825abcba525fcdf90b791dcacef51065a7a4e7)
C         1.46341747740378    0.23786322927264   -0.90835966641942
C         2.72042694895836    0.06984812585994   -0.03282712447611
C         3.05359191905850   -1.43241869925995   -0.07563403961423
C         4.32862157157054   -1.69164082751234    0.72267892299151
C         4.21982585726300   -1.10144403321591    2.13054826977289
C         5.24051358369248    0.02364709322717    2.36826583895657
C         5.04778978522314    1.21032403078019    1.40288125511542
C         3.62644342012208    1.76335328675198    1.63298467472589
C         2.60627393404621    0.63214005767745    1.40563353965389
C         2.81950282911165   -0.53908777517358    2.36878533311629
N         1.72002178494129   -1.49897503031385    2.36171258342847
N         6.00695776076330    2.27910782325797    1.68426737839980
C         7.34439704190104    2.11143722706215    1.53913526960991
N         7.90232005345111    1.08376877169434    0.88708704143628
S         9.52378089209496    1.46592227443568    0.76760853049178
N         9.39292496147292    2.88963915460100    1.63020763834597
N         8.17517845295993    3.08118215718386    2.10396504077729
H         0.73938736568049   -0.58056222862435   -0.82896825957319
H         1.86440638328921    0.34894438775037   -1.92228757709853
H         1.00890924846305    1.20031955979150   -0.65854064344237
H         3.52975010844517    0.58186894421391   -0.57196248443614
H         3.21847070134979   -1.64679654691268   -1.14016136988699
H         2.17571233882623   -1.94570309831166    0.34205429314523
H         5.17322141092471   -1.19597217821426    0.22540001429402
H         4.66430948276416   -2.73828225634152    0.69607173294071
H         4.44518122581226   -1.84089152580216    2.91609849706763
H         6.28082910207789   -0.31045421736872    2.26035041226961
H         5.16734249885988    0.37251957587439    3.40934549968921
H         5.24015127401494    0.92752421050938    0.36085965086867
H         3.47754671560239    2.70705984677253    1.08965407101883
H         3.72506584091203    2.05915707765196    2.68963943463655
H         1.61365005418367    1.02904414854302    1.66349178180548
H         2.87476792059025   -0.06567803793632    3.35755557469394
H         0.86450049403638   -1.10827988214682    2.75933919505467
H         1.97648563754229   -2.27725138902022    2.96991215628208
H         5.67685332579547    3.08832384645597    2.20678433250026
