36
 energy: -51.092560605405 gnorm: 0.121969268940 xtb: 6.4.1 (79825abcba525fcdf90b791dcacef51065a7a4e7)
C         2.12437558274853    0.23939725407513   -1.23411399164426
C         3.17704652001443   -0.20317993163356   -0.19928625652951
C         3.09178105921543   -1.69803746125746    0.15815981873258
C         3.84632710729344   -2.18245812213150    1.39355335463092
C         3.67709433054878   -1.27635494948411    2.61527433996492
C         4.98228747610224   -0.55468859693555    2.98918829767113
C         5.50002552695063    0.36083066953445    1.86176477178310
C         4.42234366662059    1.39655103297243    1.48110801893895
C         3.12953660557062    0.65806946868302    1.08693474891891
C         2.67234745283126   -0.17265343968987    2.28934071069810
N         1.32755699494583   -0.69726556837057    2.07344056431068
N         6.60833157267405    1.10907633158274    2.45612685884081
C         7.49356045413594    1.81364912744775    1.70922152206429
N         7.25476248006026    2.25225389246804    0.46698611168610
S         8.55210075360717    3.17161658209212   -0.04402984529986
N         9.43429453375151    2.91663530773794    1.35056290198111
N         8.72751440321093    2.21941685822543    2.22141858930277
H         1.42063140200118   -0.54363838635436   -1.53733361394981
H         2.64684660326768    0.59357184460651   -2.13008571193387
H         1.54121566699132    1.10479367001007   -0.90804188958007
H         4.22052364300234   -0.07240104777446   -0.51848620266460
H         3.50766765942404   -2.19889863821032   -0.72645180489618
H         2.07055885193508   -2.08902708571373    0.27142626270531
H         4.88891218881783   -2.17172609569324    1.04826538584387
H         3.44898672303002   -3.15402721850877    1.72070272399941
H         3.25061930071075   -1.86235876732210    3.44556065680151
H         5.76522097551276   -1.29878259766207    3.18633052809041
H         4.78432732215821   -0.02740350261563    3.93454277334967
H         5.78079352493708   -0.25560378726858    0.99923037259474
H         4.82251966341481    2.04568182939571    0.68962281610417
H         4.14772269465255    1.99215886911737    2.36630865675459
H         2.41701165962642    1.47876703392469    0.91933521538614
H         2.57456587785105    0.51471115837981    3.13952084978337
H         0.79271622480614    0.13451349317283    1.81897004194666
H         0.88718381056767   -1.05715513238070    2.92075719775969
H         7.05255550772488    0.63619373580190    3.24090111768453
