36
 energy: -51.096442906824 gnorm: 0.119428788074 xtb: 6.4.1 (79825abcba525fcdf90b791dcacef51065a7a4e7)
C         2.43719115956745    0.39338161815074   -1.29413195698520
C         3.31299114967383   -0.13749277725294   -0.14260866286939
C         3.00967856186257   -1.62865925020166    0.08990153913514
C         3.81080045818987   -2.11464690510999    1.29498246744221
C         3.58361857741439   -1.30853702861118    2.57593529983033
C         4.92299661092162   -0.68888611975990    3.00749339603404
C         5.52140659114630    0.29771636498003    1.98483359160144
C         4.46928937557218    1.35475183580663    1.59146374838882
C         3.14755952905946    0.69851445924298    1.15048705300666
C         2.61197801668749   -0.16295185372968    2.29762734773944
N         1.24081174892609   -0.63432577576893    2.13028979839329
N         6.74032679364489    0.92714911611092    2.49427262345312
C         7.50657565593044    1.79409092790771    1.78773515760948
N         7.34822469760294    1.85437808707040    0.45963956814689
S         8.49245681992237    2.90672983339868   -0.15088505967858
N         9.22553530838022    3.21896746682783    1.31651871583072
N         8.52900127685875    2.61739048779935    2.26361260471013
H         1.36296489181522    0.21314256400950   -1.17625641316416
H         2.76938524327878   -0.05608031501806   -2.23690022142664
H         2.47959953608962    1.47776023435903   -1.42692508102390
H         4.35250657896221   -0.04897929880441   -0.48816514405069
H         3.48484776599365   -2.10475522748933   -0.77837731479407
H         1.92409230413351   -1.78395238944976    0.01254843899164
H         4.87508527527865   -2.00727787251168    1.04579911634775
H         3.60494238701022   -3.18303350196416    1.45317584808413
H         3.23723321195627   -1.88689451615670    3.44781637639691
H         5.65190032847662   -1.47860517141324    3.23236892462428
H         4.66187349619920   -0.07965326879050    3.88587995513945
H         5.77900922858048   -0.07746436909939    0.98700193144172
H         4.85039789086844    2.00575873924731    0.79214730691003
H         4.33224090411446    1.97268568189313    2.49319598813011
H         2.43054430802073    1.49757199481609    0.91232293900125
H         2.64895979021237    0.50429480671750    3.16840393203005
H         0.63905599064676    0.17740226346092    2.27744245581484
H         1.00320364400022   -1.41609208117492    2.74166395143732
H         6.69860154883064    1.17578862861468    3.48081248465449
