36
 energy: -51.088093391160 gnorm: 0.127019408122 xtb: 6.4.1 (79825abcba525fcdf90b791dcacef51065a7a4e7)
C         1.71460667066904    0.09102454542679   -0.94318229246415
C         3.03441075431660    0.06368536694883   -0.14805411655149
C         3.47310494464926   -1.40934417945160   -0.06221580224601
C         4.16531936789747   -1.88223625132025    1.21348499175029
C         3.72444090181740   -1.14730633375473    2.48146329831888
C         4.91355157684117   -0.32465726081852    3.00434700687898
C         5.34636656948630    0.63279538001007    1.87595540197340
C         4.09401937136555    1.50790671510380    1.66424561738107
C         2.81555294434082    0.78094454845637    1.20694132131445
C         2.50068614580533   -0.25262205396942    2.29206871884354
N         1.38093260546281   -1.11160313713892    1.91978442752708
N         6.40103853081452    1.51334214202767    2.37972577100240
C         7.47574892742438    1.88700830888480    1.64264250651591
N         7.50865014438397    2.09355176600470    0.32021869595024
S         9.02562586792359    2.67538496796321   -0.06670046771919
N         9.57559400808964    2.58874764047451    1.50752927039787
N         8.66831975821050    2.10396500051587    2.33570834796600
H         0.95901170178734   -0.50615465644920   -0.42088346932889
H         1.89620011539694   -0.40537517806183   -1.90328231814651
H         1.52049807771492    1.16517852639760   -1.00502510688439
H         3.79612406991424    0.59026088681336   -0.73995548901390
H         4.06965823726555   -1.59236950343852   -0.96608923260134
H         2.57427673534650   -2.04116076261055   -0.10110801284286
H         5.26328996900730   -1.88970170101946    1.18651451973331
H         3.88451629498645   -2.94070524039158    1.31169705884453
H         3.34187606215559   -1.87966632164098    3.21081215621374
H         5.78402557635323   -0.86088806984338    3.40466851874259
H         4.72484581562411    0.33349033452323    3.86582523788283
H         5.65077870495790    0.15602906742461    0.93637314701113
H         4.24737675171481    2.24595160336574    0.86441332944539
H         3.86532905928554    2.10220007501882    2.56327935358784
H         1.99647971494467    1.50577520671538    1.09263727468336
H         2.30241927370953    0.28849631344583    3.22626287161426
H         0.46550309701288   -0.68924551638981    1.75770685136647
H         1.30070894891490   -1.92683560332714    2.52835217073379
H         6.52328085905610    1.53297842844914    3.39041598399471
