36
 energy: -51.090698715592 gnorm: 0.114194560489 xtb: 6.4.1 (79825abcba525fcdf90b791dcacef51065a7a4e7)
C         1.03758493987483   -0.36913606210033   -0.10688310694894
C         2.56997500438189   -0.49489229469617   -0.21092714574734
C         3.03851003960161   -1.94049713699972    0.03471176821693
C         3.05716215637034   -2.19478908215611    1.53976592029271
C         3.88908439285483   -1.17462933708111    2.32043507347979
C         5.32362699671317   -1.14422188997301    1.76789006422904
C         5.81916394935274    0.11154389085345    1.02303610950622
C         4.71765062226704    0.69034183415749    0.11162198037977
C         3.29184125348350    0.54896706223594    0.67656309936659
C         3.29049817443130    0.22315704658459    2.17280791919956
N         1.99410008790962    0.47022872901135    2.79618556889725
N         6.37301628180538    1.11932292049615    1.92808259989379
C         7.27696415403853    2.09608408504247    1.66974857597532
N         8.11737484509876    2.09498854856580    0.62751245900020
S         9.33116055855348    3.19471747951280    0.95427259935158
N         8.69595113673359    3.67665334297795    2.42138441021728
N         7.58213109159821    3.01447270175994    2.67626293588015
H         0.65760796232589    0.65287071193687   -0.21394605617192
H         0.74105784087204   -0.70085520420707    0.89472311358564
H         0.61477301236680   -1.08080112281635   -0.82107661999525
H         2.72283859217679   -0.23744312546861   -1.26837164472994
H         4.05050132033539   -2.11679638103207   -0.35407290910115
H         2.39367287620019   -2.57029372061226   -0.59468338618598
H         3.49942297462717   -3.18552106842614    1.71058191910663
H         2.02100777160714   -2.12659831279100    1.90113374490519
H         3.80840129555907   -1.43198761579186    3.38903871045249
H         5.48683445066781   -2.00831984301484    1.11045272948956
H         6.04394107207593   -1.30951456188676    2.58320524029451
H         6.68225313022376   -0.18921547925554    0.41689374527537
H         4.85327435678257    0.24171129516050   -0.88250943870374
H         4.92266945622024    1.76356908699223   -0.02943144328203
H         2.74337593868377    1.49106964931469    0.53180677869614
H         4.03800765995528    0.81642705664337    2.71511581067279
H         1.29919795018891   -0.05135026397352    2.25977838071233
H         1.85943519932963    1.46875986933694    2.63433549096713
H         5.81895310680807    1.23277509834353    2.77482110058138
