36
 energy: -51.085374912383 gnorm: 0.129223260698 xtb: 6.4.1 (79825abcba525fcdf90b791dcacef51065a7a4e7)
C         1.91008747995469    0.33284310086878   -1.06537871613120
C         3.07923387545705   -0.12159074234799   -0.17014372604601
C         2.92840991369201   -1.62040299023291    0.14679614056413
C         3.81201243725963   -2.21137344347609    1.24233289553727
C         3.69701711625997   -1.30959986013307    2.47352958580457
C         5.05889166334057   -0.65813460156524    2.76513515434700
C         5.47060190706438    0.38007731249410    1.70215694063640
C         4.33073061788112    1.36826928904842    1.38093356000944
C         2.95918671354198    0.71500591476358    1.12757229663221
C         2.65029490831065   -0.20906234687204    2.30892161690033
N         1.32073021174081   -0.78547529338781    2.13485860090743
N         6.47388550833324    1.27906894490667    2.27374789755912
C         7.43958094661233    1.90393454519945    1.55618541844143
N         7.98951292153697    1.66614127771907    0.35886481436314
S         9.21192001324875    2.78000123234252    0.12543694723966
N         9.09464727498733    3.43044603057680    1.65884456490223
N         8.10135137625589    2.86623969675431    2.32147253890735
H         1.06866442526498   -0.17143362560617   -0.57746985783495
H         1.96337426334783    0.04968312195910   -2.12281044960394
H         1.91777408397547    1.42322975802858   -0.98596012000750
H         4.04094363157005   -0.04508120810491   -0.69654361371575
H         3.22513832349083   -2.10456252391283   -0.79336506591477
H         1.93261402673788   -1.85217816977464    0.55086021907601
H         4.85590818877166   -2.36663725965375    0.93819905266832
H         3.33922480163090   -3.18264980472541    1.44714174623266
H         3.37809256792624   -1.83971267941866    3.38562843060531
H         5.83755009672771   -1.42710349274326    2.85403778116567
H         5.05501938359067   -0.18126733313610    3.75684855739962
H         5.98040150298994   -0.06642620100362    0.83987701373685
H         4.54215347286105    2.02555085488140    0.52580681235525
H         4.15936032166459    2.06660673049030    2.21562066718807
H         2.12649080515805    1.42935149842274    1.05238071181071
H         2.75475472184992    0.36973139320110    3.23570288788410
H         0.63140627552843   -0.06703842254490    2.36145795996592
H         1.25893588974912   -1.61167916966290    2.73064642281299
H         6.31144975130685    1.59505816105485    3.22799573101608
