36
 energy: -51.087188632857 gnorm: 0.133583014812 xtb: 6.4.1 (79825abcba525fcdf90b791dcacef51065a7a4e7)
C         2.67155150263557    0.46834478106535   -1.32144423032480
C         3.47653810320516    0.01029473100124   -0.08976009150048
C         3.38689150476974   -1.52310903543909    0.01159712363669
C         4.06149702293534   -2.01086230691405    1.29113001590095
C         3.65790679344154   -1.28360652465660    2.57583962226915
C         4.83051007971969   -0.47191835837004    3.15056298406036
C         5.29454528939282    0.61917508358838    2.16491679546450
C         4.12241136130246    1.53032546538031    1.74668071214018
C         2.96981968814907    0.65160679863794    1.22565902126121
C         2.53506272364106   -0.26833775081596    2.37003262332023
N         1.28979048210406   -0.94724361564526    2.02553880820921
N         6.50601039939439    1.29149122535752    2.63589813129168
C         7.30626301872175    1.85377865339757    1.69709613527467
N         7.14374889151059    1.91088974554181    0.36936313620765
S         8.48070992270164    2.65314956094933   -0.30222991836966
N         9.34620132890636    2.66998751257133    1.12563959937795
N         8.56864886301627    2.27669611476126    2.11799810079024
H         1.66302775654565    0.05898256750009   -1.19636323112886
H         3.16329840867923    0.15016327286275   -2.24779537053552
H         2.60250671933198    1.55719230161769   -1.39182427019530
H         4.48808108174555    0.35879869614603   -0.34108060573945
H         3.84107501909273   -1.96442829693060   -0.88579684747741
H         2.31404322024941   -1.73937981368031    0.11561863383040
H         5.15294947606432   -1.92882878319551    1.19989053817457
H         3.87577253712196   -3.09370487238339    1.24857444919173
H         3.31038599470959   -1.84946376884566    3.45543706127012
H         5.72166978678370   -1.02819139338786    3.46981284402956
H         4.52464720717234    0.09948526513240    4.03986533745045
H         5.63231352741055    0.20405377175227    1.20764221586268
H         4.49379304367367    2.13607334282707    0.90816679112686
H         3.85306911896066    2.18993731965539    2.58698570256295
H         2.14433033292668    1.36116095189664    1.06937047752827
H         2.31061076858244    0.26538108362701    3.30255774422047
H         0.64146952411490   -0.15844369647077    2.01366760861271
H         1.07577013393969   -1.50413922451445    2.85346216772819
H         6.93875261162003    1.31898677420252    3.55720244717708
