36
 energy: -51.091835479399 gnorm: 0.118116344018 xtb: 6.4.1 (79825abcba525fcdf90b791dcacef51065a7a4e7)
C         2.50182553073007    0.30355352155304   -1.31617225733389
C         3.37596562519739   -0.21060539501339   -0.15583660428404
C         3.11369726873496   -1.70004394264288    0.13126105342876
C         3.73737806726534   -2.21183033107491    1.42713808018899
C         3.53243264884125   -1.27623969760759    2.62084340903141
C         4.89088018480498   -0.65693697303234    2.98857640352138
C         5.53712313860135    0.27389925988463    1.94300192783501
C         4.43443282233330    1.30808042792887    1.63712966645475
C         3.14175556713037    0.66710841736878    1.09841071314015
C         2.58572209247020   -0.12522316146682    2.28497720434856
N         1.21328232183049   -0.50473953030917    1.96455787755263
N         6.67495171315255    1.04301168874269    2.44826659329498
C         7.50950815685944    1.78978394103537    1.68421988722673
N         7.29177573501120    1.99931079819582    0.37990452930597
S         8.41950300150445    3.13303103287483   -0.10213417621831
N         9.29303095112025    3.12739952314177    1.32092150060762
N         8.65400019467135    2.39106297834838    2.21170180144720
H         1.50151176281851    0.43880052838600   -0.89023394688871
H         2.62339681003172   -0.28964242922646   -2.22969287651178
H         2.84545037336883    1.29344426450270   -1.62817826307107
H         4.44505635522637   -0.09598454311967   -0.38330815108777
H         3.45235285957555   -2.38640327252941   -0.65651084903114
H         2.02311000331866   -1.79163643881268    0.23531492100594
H         4.83041953112474   -2.29904347726807    1.36407589445322
H         3.31477205359245   -3.19760412668116    1.66901983395892
H         3.10587986385432   -1.90614448577594    3.41829527455502
H         5.50525006307054   -1.47855066320485    3.37976229307724
H         4.84489575651105    0.03521977700988    3.84281135620160
H         5.86948055320915   -0.22237647820043    1.02319941886011
H         4.79976577709017    1.94540402961759    0.81962680870261
H         4.30883201181264    1.80781384699567    2.61090402363353
H         2.42947001782602    1.45859882890369    0.82360509197772
H         2.61303403780723    0.60839995409039    3.10099729246273
H         0.63690830397883    0.32622986080569    2.10579939530022
H         0.88989424244427   -1.14029863969528    2.69454369157422
H         7.10073226551205    0.73559938222893    3.32063812823452
