36
 energy: -51.092596486726 gnorm: 0.133144934792 xtb: 6.4.1 (79825abcba525fcdf90b791dcacef51065a7a4e7)
C         1.19962475718570    0.31545531254902   -0.76317018606942
C         2.58773165597391    0.08095082382139   -0.13625241325910
C         2.97022719189244   -1.40951534851382   -0.17920088542946
C         4.21432189805137   -1.63162242789113    0.67700996110040
C         4.31076489846175   -1.11661183813540    2.11496948207839
C         5.40214090261017   -0.03680797488011    2.19902331695717
C         5.10722100749321    1.17729295704657    1.29553390180121
C         3.68028006991759    1.72155174249858    1.51148828445549
C         2.66200325508013    0.58076364944841    1.32766114414053
C         2.95596622621504   -0.47114128630152    2.40096641127436
N         1.88542186737624   -1.46279985849270    2.42995096411536
N         5.98738253474424    2.26244722548252    1.73054657995139
C         7.30750541781043    2.21244090550246    1.42608715850824
N         7.88003848165127    1.12959469792977    0.88553427903313
S         9.52392696636840    1.36277472399460    1.06639165426270
N         9.38759867787383    2.89981258863352    1.70443510964969
N         8.12742266600307    3.22425265795731    1.92968257205073
H         0.46459936788020   -0.30237177691995   -0.23556221555502
H         1.25241203908041    0.07216374898726   -1.83050501102964
H         0.90660526560203    1.36231959020404   -0.64687660243541
H         3.30694371655996    0.72321839393210   -0.66356878087471
H         3.32415409307900   -1.60813194279936   -1.19981269599655
H         2.15705385225875   -2.08365917669175    0.12555499148543
H         5.07863624746329   -1.18998515903442    0.16296734987434
H         4.37032104374365   -2.71996235228450    0.68275757318137
H         4.47713548398244   -1.89576481312266    2.87647995337483
H         6.40224881050234   -0.46186665324121    2.04206774094486
H         5.44336798300476    0.29855461542837    3.24627930516169
H         5.42891998539942    1.00359700335378    0.26154785314879
H         3.47952356784563    2.43624770867883    0.70101501275947
H         3.73029171320859    2.21443562089095    2.49551562715784
H         1.69047359351448    0.97673257542204    1.65730422423226
H         3.02195076163316    0.01320755460326    3.38376332406456
H         1.04501375468764   -1.09154112552112    2.87553759100158
H         2.23204531976405   -2.29762361112436    2.90357105224415
H         5.87618848055410    2.80018251840617    2.58804300245268
