36
 energy: -51.096611392073 gnorm: 0.119167927446 xtb: 6.4.1 (79825abcba525fcdf90b791dcacef51065a7a4e7)
C         1.31008146343491    0.28673197798587   -0.76023047007233
C         2.71538206384547    0.12613184805792   -0.14851410213313
C         3.10617610456648   -1.36250336373218   -0.17821467861420
C         4.22869643946627   -1.78116828981263    0.76775998104427
C         4.18937662226467   -1.09920270842662    2.13730067988354
C         5.35511724872304   -0.10244578708504    2.24531698494510
C         5.12758532644260    1.18317252952296    1.42511775205253
C         3.70734203573833    1.72551245647510    1.68548447280726
C         2.66488130765963    0.65742745330306    1.30529015281417
C         2.82645029234921   -0.44463820173634    2.35612281836851
N         1.82942964614029   -1.50596806180727    2.25702250186156
N         6.01943025103700    2.21120056774795    1.96293849750654
C         7.35109209310900    2.12589321550806    1.72352250154418
N         7.86637258100225    1.13578412415282    0.98411904487254
S         9.47822840215589    1.49288663915394    0.73143291847002
N         9.43761713901164    2.94492612969645    1.55490258673625
N         8.24693569149555    3.13035655439627    2.09521231926277
H         0.60429581861996   -0.20330182525850   -0.08046851192549
H         1.17877438342904   -0.20749250507124   -1.72960219252508
H         1.01693168647550    1.31585289122810   -0.98446875463169
H         3.50311299291413    0.70006927689842   -0.65636449271382
H         3.55449943714426   -1.55209742604778   -1.16280676672042
H         2.24666902310525   -2.02057678439109    0.01357663582962
H         5.22032034759625   -1.61088034299571    0.32729813708280
H         4.06483876750006   -2.86416898353729    0.86322070305262
H         4.42365064595063   -1.84911642410110    2.91021845220682
H         6.29594246299742   -0.58300479365748    1.94625720763019
H         5.51206279304389    0.03878580366166    3.32528670926797
H         5.27688896606541    1.12000101909875    0.34044937507722
H         3.55990818021469    2.61758506804147    1.06064036238825
H         3.63227640428710    1.93183805082352    2.76508645295252
H         1.67618584932189    1.12232024829446    1.43051737060873
H         2.83523081319277    0.05208355113654    3.33491185540466
H         0.89663579557983   -1.09056344072823    2.25798737672946
H         1.82264810124724   -2.01398328535841    3.14204739310833
H         5.71772038152188    3.10698309490768    2.34157857665547
