36
 energy: -51.083682938478 gnorm: 0.145486274192 xtb: 6.4.1 (79825abcba525fcdf90b791dcacef51065a7a4e7)
C         0.84619615848199    0.12084285852269   -0.49664737902863
C         2.32746530640753   -0.18651641003541   -0.20299613331370
C         2.70619047487840   -1.65439888265453    0.06444572782555
C         4.11999576470600   -1.85694089031477    0.60326998998103
C         4.31367836236501   -1.07478065055964    1.90441456110575
C         5.51425883143261   -0.11484130574474    1.86883322151767
C         5.24594655479425    1.14388889538684    1.01976388119769
C         3.81057560952082    1.70551227470732    0.96228546464190
C         2.69638438525957    0.64579773516178    1.04981030529355
C         3.08543328082222   -0.23172727358742    2.24291268692389
N         1.95318482335340   -1.06966458658677    2.62523006368914
N         6.04235149357030    2.20665191720382    1.63438089040096
C         7.39189188421626    2.18680777351597    1.50683663305994
N         8.18149293228985    1.42939788495696    0.73520986115610
S         9.76192616865440    1.65641167683357    1.22525800497689
N         9.32453770972055    2.72319867796386    2.43307714755331
N         8.02554563258913    2.95544336336385    2.48526288272727
H         0.73237458171307    1.18091434656305   -0.74890895978572
H         0.20667252644670   -0.25896252858529    0.30829877538075
H         0.65602946109672   -0.47697718515163   -1.39205637929485
H         2.89839105660402    0.19608265687532   -1.06060789200770
H         2.49602655051262   -2.32457397108242   -0.77998174108374
H         2.07041704343522   -2.05505616236225    0.86685636978521
H         4.84178137988707   -1.41340496891705   -0.09574646224037
H         4.45960698106773   -2.89634495985232    0.71796946619238
H         4.37014153542142   -1.80295184098586    2.72978440645096
H         6.33212741936186   -0.63684761964345    1.35490115825736
H         5.94889013869383    0.15727455009741    2.84246632857108
H         5.59711902827425    0.99848864260125   -0.00898503721112
H         3.59345484952388    2.27594749126722    0.04827088392530
H         3.65703951453900    2.42491393598088    1.78242778426537
H         1.81463156876168    1.22941805392870    1.35184531368467
H         3.31404537225636    0.40138863843215    3.10994112364833
H         1.09012608693349   -0.62179518324527    2.93701348666327
H         2.16246429003947   -1.59773929808423    3.47301170626087
H         5.65111745571739    2.66410634199134    2.45565724890524
