36
 energy: -51.081732710704 gnorm: 0.134886045165 xtb: 6.4.1 (79825abcba525fcdf90b791dcacef51065a7a4e7)
C         2.44093039960458    0.22619689932934   -1.33603018787675
C         3.35617655074531   -0.31107853261347   -0.21865885450898
C         2.94100039684673   -1.72878588547985    0.21420549654748
C         3.66507708744598   -2.14622881521874    1.49156787343258
C         3.58609851040745   -1.15451526472211    2.65455173143199
C         4.98560413591219   -0.72213822954540    3.12207412737146
C         5.65107622567428    0.22100436185747    2.09985060650646
C         4.75524982560727    1.14904370040585    1.25412463044147
C         3.32128442534522    0.65044175719544    0.99486224181086
C         2.74557846329468    0.06757474373722    2.28858989038495
N         1.29451647666997   -0.07360545381004    2.21945690694084
N         6.80886393972945    0.93819132058776    2.63524824273599
C         7.45203225678180    1.73731878401955    1.74887900335389
N         7.50615134415134    1.60070172462135    0.41810691620452
S         8.39945557205272    2.87671248107915   -0.18460011964815
N         8.76056811674926    3.53918831811804    1.30499504186928
N         8.25405469890807    2.76560824113858    2.24789449440972
H         2.71947266977624    1.19228322604521   -1.77127062438472
H         1.41985641279191    0.46003424585958   -1.01368109406717
H         2.32932842337900   -0.43388092784691   -2.20040957113944
H         4.42082080622374   -0.34547229983735   -0.48918778301581
H         3.18538739761471   -2.46339295383621   -0.56488933187320
H         1.84892810692390   -1.73040978833661    0.34058763423702
H         4.72388118593729   -2.33890480976885    1.27217679089737
H         3.19896511195362   -3.05424142444695    1.90035305292646
H         3.03441370169952   -1.60661541379158    3.49473392253696
H         5.64755293700715   -1.59811899221938    3.12477278887992
H         5.00719451235345   -0.21159965190157    4.09664945869989
H         5.96612792569235   -0.48374190258537    1.32083659079743
H         5.24284177814933    1.41504201166724    0.30572628672684
H         4.65820593541591    2.16197205095896    1.67638540370751
H         2.79207126891180    1.57605497744409    0.72560495443631
H         2.93420100058963    0.85049312042656    3.03444372236640
H         0.88459306146186   -0.04200564599229    3.15413896118907
H         1.02098078688862   -0.99630405503198    1.88004560774738
H         6.40742946120169    1.56360330772342    3.33133280607835
