36
 energy: -51.093021384144 gnorm: 0.125261610834 xtb: 6.4.1 (79825abcba525fcdf90b791dcacef51065a7a4e7)
C         1.44711224183374    0.36713498507203   -0.90938043582649
C         2.74282795803770   -0.03991124481379   -0.18116810569360
C         2.89673981884051   -1.56761611716423   -0.07132362138660
C         4.15046962792437   -1.76917119538296    0.77587018947829
C         4.13674001145135   -1.19791747601150    2.19563969674909
C         5.27609467462200   -0.19047243917710    2.42162305544390
C         5.23684503920171    1.03036725147553    1.48070761122702
C         3.83718556504136    1.66787517188012    1.36429727142950
C         2.73414462044687    0.60162208110496    1.22834658398860
C         2.84232988997863   -0.40672561496244    2.37570585147679
N         1.77276197380672   -1.39246306704122    2.49669425262612
N         6.08285585779544    2.05365929563998    2.09602804962098
C         7.38336610033612    2.06564632283077    1.71334013190034
N         7.89878299283695    1.18275880840895    0.84881568551554
S         9.44456705242852    1.77085853941230    0.61613130032690
N         9.37037575546278    3.05655651077079    1.67897965747743
N         8.17989807910301    3.07903068045074    2.25020568612704
H         0.52549239601405    0.08760533367087   -0.38705597419879
H         1.53485507284399   -0.09356613997739   -1.89995430476218
H         1.40230234328578    1.45855217669769   -0.95531553425371
H         3.54332980721312    0.40487319636163   -0.78878621649407
H         3.08905893074386   -2.04702023521883   -1.04062559860573
H         1.91623174832847   -1.95996523594951    0.23406633535908
H         4.92179165844933   -1.26609527125595    0.17728893205224
H         4.32863420576247   -2.85403005081256    0.78969828713534
H         4.18114770111232   -2.04463554207657    2.89973714206162
H         6.25404540517161   -0.68335859088319    2.34287419668062
H         5.18021783179864    0.24353693533189    3.42827907747286
H         5.68359172740827    0.75511830770305    0.51766914357484
H         3.79743443812311    2.38312193500767    0.53074923732699
H         3.72743153282319    2.14087358171908    2.35322197445636
H         1.82422202370276    1.21911642523111    1.23655861769261
H         2.90791472134538    0.17094698973596    3.30674319214765
H         0.88474628783455   -0.93117338012477    2.69993364566091
H         1.98487360378860   -2.08379782811057    3.21673550378187
H         5.64885753845041    2.92475907807371    2.39545101423155
