36
 energy: -51.099039291044 gnorm: 0.115039816914 xtb: 6.4.1 (79825abcba525fcdf90b791dcacef51065a7a4e7)
C         1.08944936276220    0.31138440228406   -0.58371973609129
C         2.51962856331183   -0.01255080210091   -0.10989220049898
C         2.74457222366702   -1.53454781750821   -0.05927260008558
C         4.11017605671424   -1.90156480361322    0.51572739085564
C         4.20984162669748   -1.27556138917101    1.90872822170887
C         5.33921157934321   -0.24305118194962    2.05902543566702
C         5.22898921391112    1.10934558391663    1.32677822514508
C         3.79392829480308    1.67451626170409    1.34080126983110
C         2.68699295615442    0.60439344120366    1.30068963740714
C         2.97571734967768   -0.48415474795724    2.33828473529557
N         1.86822786653001   -1.38356818232512    2.64620456925637
N         6.07062874449416    2.19650643136449    1.82798110514645
C         7.41768412877913    2.16594303493209    1.67822037836125
N         8.09024752203678    1.16922831572314    1.08935222383066
S         9.68359480756700    1.65358042371759    0.96246987101415
N         9.43683490747019    3.16279803834806    1.63294880053270
N         8.16680017674292    3.30906871611720    1.96409533823881
H         0.95180344316774    1.38799207067177   -0.73309293658000
H         0.29146603395267    0.01200266215509    0.10531880080792
H         0.92223102480237   -0.09507376650470   -1.58478878528846
H         3.17282676934842    0.40908924672904   -0.88667272275308
H         2.76403461031513   -1.82439872021211   -1.11850296844342
H         1.96972727864323   -2.06623847072741    0.51126865401893
H         4.93645016017049   -1.53736188863561   -0.10953250653859
H         4.22428486559516   -2.99492890334314    0.53539226233307
H         4.38539357639106   -2.00971389572031    2.71175897255319
H         6.27438767873131   -0.70686159677784    1.71865600124160
H         5.38984238406829   -0.00076507383421    3.13124128494348
H         5.60018872103644    0.96931018456601    0.30433570610059
H         3.66730685227860    2.51483439236337    0.64381283637707
H         3.69798403351630    2.18606513340440    2.31181001270686
H         1.74483045898518    1.07668215600544    1.61469452965163
H         3.26170622983147    0.04310474822743    3.25754822646741
H         1.01486111321888   -0.82531415993644    2.69896750801723
H         2.02425595468066   -1.91033766767436    3.50618343895453
H         5.68224469389392    2.91581863851177    2.43508180226964
