36
 energy: -51.084209277121 gnorm: 0.134447527625 xtb: 6.4.1 (79825abcba525fcdf90b791dcacef51065a7a4e7)
C         2.65410680030592    0.52198715754710   -1.26342940528501
C         3.45289752111391   -0.00168277726775   -0.05406499382828
C         3.45417850929215   -1.53991059716190    0.00501489545059
C         3.98218580399796   -2.12236548784298    1.31350825611862
C         3.69703924226233   -1.27639787223314    2.55660722874118
C         4.88893338558680   -0.48930844277617    3.12583624355141
C         5.30550316673389    0.66421742467284    2.19140610031373
C         4.12159720711854    1.60633689544896    1.89175297859111
C         3.02869777209058    0.74085762097078    1.23708197661346
C         2.58458986393505   -0.25918382748886    2.30833723225099
N         1.38991658900998   -0.93898114481305    1.81749764056047
N         6.49070982445062    1.37863679861264    2.66718996308510
C         7.40800796800218    1.83011341955896    1.77687901542575
N         7.10258102723491    1.86374305433508    0.47375550467312
S         8.38476389521249    2.52888735633107   -0.36472038494508
N         9.25171576566273    2.81365404662718    1.03366176503310
N         8.68016177132053    2.30082270980597    2.10807854239425
H         1.60612464255344    0.45089172331891   -0.95194640046226
H         2.92117267119326   -0.06762460831148   -2.14785843847339
H         2.99258292461519    1.54744409729642   -1.43425515447130
H         4.47412586784812    0.29334562371386   -0.33314763782137
H         3.95454128293617   -1.99178210686433   -0.86205518561587
H         2.38311813863895   -1.78046887004023    0.06466695175073
H         5.06475216624107   -2.25153000451539    1.18050750533975
H         3.60153623666888   -3.15145162005489    1.38379496991092
H         3.30743628442883   -1.77030763138839    3.46154892371617
H         5.82619093448343   -1.01264647932085    3.35646880405864
H         4.65525021850971   -0.01010637730192    4.08847347103043
H         5.61215149891525    0.22318261108371    1.23524565280112
H         4.49508047252447    2.38598844261362    1.21306736589392
H         3.79002017259966    1.97380398359156    2.87601419460280
H         2.12641694726900    1.31488953248896    0.98075686678862
H         2.29887305151090    0.17097790018346    3.27692609056537
H         0.78461330359716   -0.13248314830227    1.65676426290112
H         1.06740722653342   -1.51199679231319    2.59790477677742
H         6.54786421698928    1.69588519593504    3.63306278465898
