36
 energy: -51.094834515423 gnorm: 0.122032329066 xtb: 6.4.1 (79825abcba525fcdf90b791dcacef51065a7a4e7)
C         1.50854190334867    0.15858629947202   -0.83608735219409
C         2.90042639757339    0.07159905030987   -0.18038175827593
C         3.42850830933917   -1.37415133126915   -0.20430159582582
C         4.45969008817214   -1.73069249514313    0.86328575420723
C         4.17529189778133   -1.13269507253861    2.24306164259682
C         5.18598803234925   -0.05855003667881    2.67762902001052
C         5.10173176611874    1.20500793442852    1.79806430881403
C         3.69128990414009    1.79275917009103    1.58778693469112
C         2.71683645191955    0.65063169486385    1.24418414105925
C         2.81839517188557   -0.43491085824017    2.31944486956814
N         1.74686371691966   -1.42130162326478    2.22381195503887
N         6.08734649518840    2.14122554774199    2.33985791432387
C         7.31711066343390    2.10887977029882    1.77016111688874
N         7.50572674051089    1.53434687930028    0.57563887752632
S         9.13414778081758    1.68189738788541    0.23516063917356
N         9.48560213028687    2.56513426981505    1.60794711258398
N         8.41189349834409    2.74884528272577    2.35456709357946
H         0.70493793703264   -0.20574197560325   -0.18660418473357
H         1.59776575375528   -0.39077310465181   -1.78024002535563
H         1.30263832032659    1.20779339191839   -1.06429260950135
H         3.57703664757203    0.68180494270228   -0.79494136888458
H         3.66747400461006   -1.56183911038785   -1.25977777281856
H         2.51148262556973   -1.93929958922970    0.01539884925842
H         5.44624938841165   -1.41314098737150    0.49971408981316
H         4.53468863288110   -2.82742477459215    0.88343724963564
H         4.24959661610892   -1.97259877743126    2.95277801165405
H         6.14350262546022   -0.58257803629181    2.55894356874013
H         4.93896784853293    0.28584562388510    3.69315130376251
H         5.52191678831153    0.95207971933905    0.81711601769002
H         3.83566100448799    2.53531390018716    0.79046023242962
H         3.24378839838673    2.25857890898424    2.48025534724530
H         1.70411482934923    1.07841653405366    1.21733472657851
H         2.81056852255108    0.14243679634116    3.25295757666655
H         0.85456004362842   -0.94641785563167    2.07908514567027
H         1.62256819639840   -2.05388561494818    3.01487618373876
H         5.93097367658414    2.64086833015030    3.21320097367971
