36
 energy: -51.086010001329 gnorm: 0.135181778034 xtb: 6.4.1 (79825abcba525fcdf90b791dcacef51065a7a4e7)
C         2.62605980905440    0.55640274657128   -1.23361078713708
C         3.49288465994938    0.08095051120366   -0.05148603476120
C         3.47305794622888   -1.45714734703689    0.00766422795168
C         3.97146465260994   -2.01360482099963    1.33888400404130
C         3.66794204086568   -1.16758998527870    2.57759208859925
C         4.92629631457042   -0.51103782162856    3.16888460204056
C         5.42773412468392    0.58636482447880    2.20889526422302
C         4.22182505404232    1.50558916150302    1.92636330897055
C         3.04067711431560    0.78152742903799    1.25353214378435
C         2.51187655384783   -0.21007355895454    2.29372441021800
N         1.36686138302295   -0.97787158258233    1.81443478262662
N         6.59336391120965    1.31256295786909    2.71428975379770
C         7.34660850666039    1.94291053807659    1.77983531705337
N         7.06985457860383    1.83210904569662    0.47458525299019
S         8.39432817751932    2.37604813470444   -0.38527032541763
N         9.17531844315025    2.87900619710342    1.00226621173010
N         8.52976030945131    2.60152948875232    2.12043557691749
H         1.58429507637515    0.57060544225833   -0.89468993166108
H         2.73734099904419   -0.17378181868775   -2.04331932937028
H         2.97327787636958    1.51673490285974   -1.62413763176138
H         4.50954721886284    0.36775279693167   -0.35476459556675
H         3.96573763150721   -1.94007582666408   -0.84697493217889
H         2.42077837157447   -1.77448827587869    0.03214662707869
H         5.05807562113589   -2.07008882159019    1.18918847245312
H         3.62266966224951   -3.05056676464005    1.44799200614269
H         3.22562794029679   -1.72910567701144    3.41646939750753
H         5.67581840147875   -1.31281103512382    3.13884887412826
H         4.86840292756667   -0.22433990899452    4.22971706079371
H         5.70755698368149    0.01869243778895    1.31321958948987
H         4.64227551687121    2.29429772420032    1.28673791426587
H         3.98071347615738    1.92327064078004    2.91689493735375
H         2.22781578859573    1.46775421421227    0.97482958059075
H         2.16894202320515    0.27408823141577    3.21720739714577
H         0.61430284093766   -0.52174920199411    1.29648275675514
H         1.05306089965604   -1.72932093758745    2.42945318021925
H         6.63997957797285    1.63082509607633    3.68039516034703
