36
 energy: -51.091222003162 gnorm: 0.128128695447 xtb: 6.4.1 (79825abcba525fcdf90b791dcacef51065a7a4e7)
C         1.68186314522533    0.19264559752180   -1.12621692720965
C         2.90737254274233   -0.03504113412907   -0.22004664678047
C         3.04178680863710   -1.56145628308670   -0.07298704565086
C         3.98349142325734   -1.95293261265594    1.06285581291731
C         3.93217067998468   -1.23587432088664    2.41395108536914
C         5.16399584599257   -0.34799466279450    2.65565250736506
C         5.28735442249852    0.85296232651197    1.69659204502294
C         3.92524458677953    1.56039908424033    1.54426201220804
C         2.74887466884701    0.64201521168569    1.16373271211941
C         2.71491989804493   -0.31434966616903    2.35918904922501
N         1.49415968822498   -1.11294586907016    2.40694618154561
N         6.20847393924286    1.84205649903552    2.25758376042025
C         7.43612901991586    2.03712672514758    1.71653737749416
N         7.87854201738840    1.55166301104207    0.54985698520503
S         9.37987691990461    2.19777104563898    0.20636088549785
N         9.43330713728643    3.05960767346840    1.63554005083846
N         8.35390221563368    2.86175103078941    2.37023666575011
H         0.70871715282414   -0.16349808585207   -0.77056066168423
H         1.75929609487859   -0.28545504412962   -2.10937756753262
H         1.58513767855509    1.25952326273583   -1.34467903195973
H         3.78599376936058    0.30547829063388   -0.78565029037018
H         3.38145898506722   -1.91753821354032   -1.05491870103450
H         2.01529992816353   -1.93831213118747    0.04059694627966
H         4.90857438710356   -1.71770955582011    0.51951960646871
H         3.90478441665535   -3.04606071512504    1.15076913902529
H         3.76264815853396   -1.90654214098431    3.27192752913478
H         6.04924675234102   -0.99745874167354    2.64836983935279
H         5.09607434237017    0.07565482777597    3.66897410235492
H         5.74289564262798    0.60669551396286    0.72983325828484
H         4.00171481213143    2.45901185383843    0.91608382587400
H         3.68770467559422    2.00132541945476    2.52553888235133
H         1.80308047798858    1.19288191588088    1.05721929089469
H         2.79535384396231    0.29849988685246    3.26626313689848
H         0.64113238028656   -0.59987325231166    2.17942211717961
H         1.36766611543847   -1.61932649387633    3.28385698346793
H         6.21645875757401    1.78784775503253    3.27435371666541
