36
 energy: -51.090645538209 gnorm: 0.127476228987 xtb: 6.4.1 (79825abcba525fcdf90b791dcacef51065a7a4e7)
C         2.31387264084866    0.44072736168882   -1.17398342027511
C         3.32903759702615    0.05860277647745   -0.07932364332812
C         3.34611688697701   -1.47427271489143    0.06081185185195
C         3.98917134953663   -2.12350389372857    1.28358744090076
C         3.62635745942560   -1.29128349538103    2.51567516231532
C         4.91388550522405   -0.66501305844598    3.07621061680662
C         5.40620733727245    0.37316930240394    2.04805274594462
C         4.25937645573196    1.38412015660034    1.84367142898618
C         2.98169485886107    0.75090804599751    1.26173513376518
C         2.51807042284991   -0.25908664585483    2.31523676384096
N         1.26287984521126   -0.86959083120924    1.88853617457212
N         6.61702199409536    1.10227543974356    2.42727859620585
C         7.44206395645098    1.81419000243667    1.62080230859456
N         7.71096533222114    1.53010705084543    0.34035849265888
S         8.91828532620423    2.56899740175723   -0.16217203979685
N         9.01619630355572    3.44086520317932    1.25854264919084
N         8.07530127264626    2.97803613362053    2.06137958412759
H         1.30155676118068    0.29876629336124   -0.77976717999055
H         2.34760014134350   -0.06445334147216   -2.14601008777356
H         2.30181621803681    1.49816698687018   -1.45144610454053
H         4.28115793845952    0.49653598852951   -0.41025805503356
H         3.73865077428038   -1.85255404919087   -0.89269834041328
H         2.27109945353986   -1.70156898723765    0.02516220377296
H         5.07523219231550   -2.22890871723420    1.15835055612228
H         3.52104953848292   -3.11038064162678    1.40924114655895
H         3.27253939278991   -1.91438792365984    3.35305825752396
H         5.67352063797654   -1.44931128866969    3.19178116981714
H         4.79486818966530   -0.22300325580078    4.07689792390088
H         5.59129955616131   -0.10018694764177    1.07621817523731
H         4.61754362022088    2.23754033463973    1.25092297406459
H         3.87611905249926    1.79876308204294    2.78967911775288
H         2.17097288261014    1.48588043341259    1.15277935913807
H         2.43984609428609    0.20670467085190    3.30607328000813
H         0.57923776648044   -0.11110664442850    1.88978116502337
H         1.03165432504723   -1.44004977924713    2.70248080969289
H         6.51845285755049    1.55349870980187    3.33475045748112
