36
 energy: -51.090434214476 gnorm: 0.127797961128 xtb: 6.4.1 (79825abcba525fcdf90b791dcacef51065a7a4e7)
C         1.89892887738693    0.15122946997691   -1.16237973028197
C         3.05154515165024   -0.17621948321332   -0.19330180525918
C         2.98893870675092   -1.69247084468040    0.06496004137155
C         3.94974450169297   -2.09933077195575    1.17919410019116
C         3.70347351810589   -1.29757297072774    2.45935030015320
C         4.99173452745715   -0.54194934470275    2.82480843409266
C         5.45546647439019    0.43103789369318    1.72228380303111
C         4.25623508979799    1.36503255474819    1.46053488034655
C         2.95358475193874    0.60941784972030    1.13769404275941
C         2.60432059491325   -0.24099625527952    2.36232173181018
N         1.20672079658348   -0.65649369604838    2.29622472114861
N         6.57088659471592    1.17408491927298    2.30982039522853
C         7.51543410687220    1.95621693881533    1.73187565410609
N         7.67930866216710    1.91841735056026    0.40361973258431
S         8.98323629627779    2.87921185609684   -0.00393187729741
N         9.37823465121489    3.24645982670810    1.57634514889788
N         8.51262637350544    2.67520259510133    2.39392012602920
H         1.72967694714941   -0.77606037691489   -1.72079727456407
H         2.21670948688322    0.94238787715952   -1.85104858515384
H         0.97593818761411    0.36993294635440   -0.61871950805020
H         4.06854550738195    0.02409703601073   -0.55856855365212
H         3.31051969394252   -2.21371714180601   -0.84676868794580
H         1.97980773720094   -1.95225921797133    0.41533364438772
H         4.93533586746230   -1.90309400286271    0.73599730229867
H         3.84402969267628   -3.17841841029408    1.36153127806926
H         3.45296366961625   -1.96948909477573    3.29626746508461
H         5.73106964575362   -1.34716736944252    2.92744044631259
H         4.77358642764252   -0.06563636986238    3.79251202592432
H         5.89317736758733   -0.04078682184445    0.83426447603135
H         4.53553269318123    2.02403335356905    0.62646578743608
H         4.21246924677610    2.10178150927068    2.27847807468909
H         2.15048493407831    1.34357521399732    0.97841584529503
H         2.68414734708896    0.40206934697324    3.24828556760021
H         0.59498579061048    0.13822859229762    2.48822229446944
H         1.05471627863668   -1.25721950687353    3.10703767479815
H         6.68117764924451    1.26867824759487    3.31764552298989
