36
 energy: -51.093868695347 gnorm: 0.124847545488 xtb: 6.4.1 (79825abcba525fcdf90b791dcacef51065a7a4e7)
C         2.18991002156467   -0.05950432954642   -1.18503996881160
C         3.25475783353814   -0.14825069412675   -0.07459757157925
C         3.40078479011065   -1.65212028921859    0.21983284643772
C         3.77795763305457   -2.09889979096839    1.62991404822469
C         3.60098261820239   -1.05768061012056    2.73752738059973
C         4.86787745352143   -0.25742451188738    3.08207164971548
C         5.35811051659764    0.61103158980234    1.90616027651106
C         4.18671902323619    1.53746700093684    1.52070750906786
C         2.92796622635791    0.72607633882929    1.16117411418069
C         2.46753948151449   -0.10451952604791    2.36243189868056
N         1.23271096797676   -0.84370505304603    2.11933641056590
N         6.41734799045134    1.51702731839571    2.35188202556988
C         7.43845540186140    1.94095424931218    1.56731448770991
N         7.58129738315398    1.84244574209543    0.23974539782902
S         9.01579357704153    2.55880512421364   -0.22769611700909
N         9.40289023614567    2.91502933451917    1.35705330830719
N         8.52016797188947    2.50261270451676    2.24854379723496
H         1.25244609523278   -0.58208791762959   -0.96501587353633
H         2.45659291812481   -0.43446510432347   -2.17975881150147
H         2.08325775028618    1.02170699368697   -1.30717443530638
H         4.19689398429837    0.24279535308443   -0.48361918201561
H         4.13331303584063   -2.04424686313073   -0.49849884215528
H         2.42612787438093   -2.07843781709787   -0.05746523302235
H         4.78085215087610   -2.53249432766697    1.74181114855295
H         3.09421619678739   -2.92428460206525    1.87504697884879
H         3.28479883372924   -1.60944978311244    3.63765813762551
H         5.59259387853036   -1.02310326540038    3.38874402765460
H         4.62732514084032    0.41392513475267    3.92012720437239
H         5.68565204182262   -0.01261788618677    1.06558572105167
H         4.44476481956537    2.22460640652788    0.70265356840330
H         3.98150300012951    2.13135171087237    2.42565661108981
H         2.12409481513781    1.42993210534856    0.90097477528395
H         2.39538539676931    0.61850074259134    3.18515485697788
H         1.46281864927494   -1.37090226852191    1.27566594584891
H         0.46199534610401   -0.19928984312632    1.94011313557240
H         6.45111262413859    1.77275081057851    3.33691447907605
