36
 energy: -51.093149247456 gnorm: 0.126280136000 xtb: 6.4.1 (79825abcba525fcdf90b791dcacef51065a7a4e7)
C         1.17387045449802    0.11027240753603   -0.70662820090576
C         2.61549204609007   -0.06110222561115   -0.18969784490091
C         3.01112600768899   -1.54861914560613   -0.20979869717845
C         4.18614710391701   -1.89392624994630    0.70140307815833
C         4.14000923186424   -1.20963468911402    2.06957015185883
C         5.29751712047433   -0.20201939259391    2.16459624768358
C         5.21104208908645    1.07574619051199    1.30602234626526
C         3.79421919135089    1.68509862857382    1.28822136500432
C         2.69640137207771    0.60812375594423    1.20456266875918
C         2.90921963225861   -0.35733847208209    2.37396147081162
N         1.68455494250681   -1.11236090261678    2.61978581172223
N         6.05159004428248    2.19210530101109    1.74042033743524
C         7.40061454659011    2.09169191246368    1.65114170362098
N         8.02268769022057    1.41213135427481    0.67966348885455
S         9.63003378731926    1.85230945097224    0.78981539705136
N         9.47513773289445    2.78830669313325    2.16389204266158
N         8.19207016522745    2.92323794964717    2.44597808669700
H         0.47829903196990   -0.30655118232575    0.03010873329778
H         0.91429258659498   -0.51642263294699   -1.56747288798312
H         0.96440855545057    1.15895425738298   -0.93400792986195
H         3.15432741004426    0.53334206057034   -0.94078281560620
H         3.25309023342038   -1.88429636968334   -1.22721473688188
H         2.18988160764069   -2.17985318080937    0.15857363984398
H         5.13930066202491   -1.63907094926020    0.21883738025897
H         4.05497762887753   -2.97039699677778    0.88267050032679
H         4.23946182915191   -1.88727168382631    2.93303644699647
H         6.25658296551688   -0.67131331349201    1.90870231756464
H         5.39399195868492    0.18623802882459    3.18971167770123
H         5.37174388941967    0.80166478916605    0.25633572174108
H         3.71427485002488    2.36596993054801    0.42916164520144
H         3.72400876169435    2.30947381159371    2.19319188801215
H         1.72276678760467    1.09148544845839    1.37106501388532
H         3.11562986605886    0.19143045005039    3.30190815150924
H         0.91616052495092   -0.44995264960368    2.73576691909241
H         1.79314579222335   -1.71835048420675    3.43365260840107
H         5.77336849395137    2.76122871216910    2.53761216197127
