36
 energy: -51.084843969981 gnorm: 0.123253826280 xtb: 6.4.1 (79825abcba525fcdf90b791dcacef51065a7a4e7)
C         1.70097416420435    0.31166010440077   -1.06059567027557
C         2.91140465632079   -0.06793379486003   -0.18559533134203
C         3.00742748265548   -1.59586462947315   -0.02483496298301
C         4.08863871672036   -2.00097264723301    0.97369898888072
C         4.01984360701514   -1.18950259325860    2.26947999635809
C         5.25823740994219   -0.30794910241125    2.50053698148719
C         5.27127346207771    0.90388038630768    1.54732589560883
C         3.85841291887736    1.52220097055880    1.57011126156611
C         2.72041028232846    0.54371432206267    1.22429115499721
C         2.69060356344331   -0.44651853992947    2.39196104486414
N         1.51124430358030   -1.29954741235518    2.50033807223178
N         6.15166921275300    1.91696504835161    2.13045793040125
C         7.38501462403825    2.15262318704968    1.61933665254693
N         7.88463883135666    1.48142083520717    0.57415221174638
S         9.41965098171927    2.09563533759281    0.33765714569804
N         9.37400606893034    3.22277865792212    1.56876832253088
N         8.22865848682080    3.09339604535387    2.21334602633298
H         1.12622996435438    1.01637438270742   -0.44953943956178
H         1.02492162998696   -0.49748121843417   -1.35963449076682
H         2.05366572191057    0.83641127611801   -1.95253419402871
H         3.84681385860897    0.39480413775791   -0.53015221414405
H         3.25676035908512   -2.16026852835168   -0.93348377003509
H         2.09601793525163   -1.94885370894919    0.47848234624136
H         5.13781002243199   -1.95027996636374    0.65277466317894
H         3.85583329713082   -3.05259069399472    1.19450142071750
H         4.01430761068217   -1.98383618148333    3.03345662603829
H         6.16862572738696   -0.92145235508124    2.48229790370982
H         5.05572494401684    0.02423561383928    3.52988381170794
H         5.62547342523027    0.65433972117374    0.53982425872787
H         3.88583323080329    2.41425597693333    0.92867035487366
H         3.73958266815933    1.91693116503286    2.59178292293450
H         1.79865182456052    1.13732803271072    1.13879267469680
H         2.68991637218495    0.19672648407759    3.28138386174957
H         0.68718116321550   -0.70556813258326    2.39653609008998
H         1.57420678273951   -1.83973167744434    3.36383746319022
H         5.75344654895056    2.37362076752842    2.94881467089284
