36
 energy: -51.092452917512 gnorm: 0.125134994710 xtb: 6.4.1 (79825abcba525fcdf90b791dcacef51065a7a4e7)
C         2.46092426083909    0.10932771035616   -1.39120803134062
C         3.26256841274929   -0.15164099765263   -0.10119988996971
C         3.24878434025364   -1.66988342249255    0.15254559466122
C         4.05662939451731   -1.96288410141473    1.41418626882347
C         3.73567013634441   -1.11286110649648    2.64573440534851
C         4.94418664351767   -0.24658238503774    3.03713197987755
C         5.26178113097323    0.76254576936524    1.91547870615232
C         4.03135277578389    1.59050288690388    1.49174831520341
C         2.84329000107779    0.67622612194401    1.13864433296733
C         2.59214482000761   -0.12554638680694    2.41887453081381
N         1.30753021294303   -0.81545040610972    2.48282600118485
N         6.20675933859261    1.78077324219260    2.37559731869125
C         7.34251316601052    1.98757802933829    1.66481209591462
N         7.46927692897621    1.56686750752602    0.40010617969925
S         8.89760551246643    2.22087737776412   -0.16699188575569
N         9.34313566103079    2.82950823773590    1.32272003739518
N         8.42393487538545    2.64643164201772    2.25309320769421
H         1.92866217806309   -0.80530454124734   -1.67491162190301
H         3.12665374526822    0.32397843797598   -2.23495575925736
H         1.71199139343004    0.90403218128980   -1.33778711639980
H         4.31015676889728    0.00652936132993   -0.39339322598774
H         3.66740838195588   -2.16857486978269   -0.73200062935888
H         2.19006421352755   -1.92797335808412    0.29779784243955
H         5.13832567646567   -1.83875793143811    1.26979644608708
H         3.84254237415158   -2.99319892378247    1.73273089195749
H         3.48772956086695   -1.76101606584396    3.50193377649120
H         5.80311132464668   -0.90641093213211    3.21713323842294
H         4.74798705971613    0.30993460594233    3.96595242022203
H         5.70058405438829    0.27937673195914    1.03412330046541
H         4.39818753641788    2.20032291260520    0.65418505471042
H         3.88829780679465    2.30626564421360    2.31695401866305
H         1.90937293340046    1.16686462434353    0.82816310667086
H         2.53837218762771    0.63886647135032    3.20476193838142
H         1.00557084702413   -1.35448567765178    1.66985134488358
H         0.58598638835558   -0.09646802919302    2.54474009837846
H         6.38887591162960    1.94737402898653    3.36347444429184
