36
 energy: -51.079694671797 gnorm: 0.128081128782 xtb: 6.4.1 (79825abcba525fcdf90b791dcacef51065a7a4e7)
C         0.90847299515903   -0.54253798071289   -0.12232797685181
C         2.44031827304767   -0.41829479094333   -0.23578606422460
C         3.04898384587986   -1.80462360734558    0.04216269355209
C         3.26601944469921   -2.16031048458591    1.51069347810671
C         4.14598374845041   -1.07581358126488    2.13662806338861
C         5.50242378724221   -0.88732993285450    1.43756626107007
C         5.61497075018358    0.53312484827399    0.84853878498158
C         4.37651383818093    1.09602895322374    0.12164276570068
C         3.05005137653261    0.61740080923257    0.74090850214556
C         3.33055187064246    0.21490933612890    2.19150236723660
N         2.20110616276875   -0.07819084507391    3.06827871121443
N         6.04715731976326    1.50571922874191    1.85290679383214
C         7.25317478859879    2.10310212466277    1.68988480083654
N         8.36627308966931    1.55922276372550    1.18218914871505
S         9.59658986488107    2.66336892667088    1.42016720218282
N         8.59479256630627    3.88964009472337    1.95010252629807
N         7.35812999686281    3.44229830676471    2.07090143633368
H         0.30458152483701    0.36531140798465   -0.01524207401872
H         0.76017357842451   -1.14961332378512    0.77803180425929
H         0.57602013729331   -1.12250802732023   -0.98744027807122
H         2.58483993732070   -0.18776498582990   -1.30058918631467
H         4.01447068536173   -1.82273301445757   -0.48116178010450
H         2.44665611866581   -2.53480668789225   -0.51697139779678
H         3.81027185394434   -3.11411930626087    1.52968402865766
H         2.28000268432092   -2.28189063204346    1.98169432188390
H         4.41729600835502   -1.31709376799508    3.17721938786946
H         5.64927554656722   -1.59311864781205    0.60942217055321
H         6.33831676243273   -1.07131363245874    2.12919172859122
H         6.37435082561249    0.51283865312152    0.05751535107517
H         4.38195169337093    0.80626266938023   -0.93853003119587
H         4.55051297219398    2.18363803849204    0.14564887949800
H         2.33707457957163    1.44530335871599    0.86567754019293
H         4.03084568494452    0.91158767362402    2.67011017122676
H         2.38113136682196   -0.82444972654089    3.74159505231292
H         1.34970070060283   -0.27222741318421    2.54021332123363
H         5.35004308982625    2.20935635445725    2.08902127281847
