36
 energy: -51.089154380683 gnorm: 0.125184183030 xtb: 6.4.1 (79825abcba525fcdf90b791dcacef51065a7a4e7)
C         2.13528403775145    0.33324595801899   -1.29245621585342
C         3.06802143800199   -0.12309531707198   -0.15376721631391
C         2.96291831082072   -1.63189616329887    0.13278159155250
C         3.76529418461430   -2.14927541742029    1.32387853536223
C         3.68396834801212   -1.31075349354682    2.60158425485472
C         5.04160219323234   -0.63488590880329    2.85491493559142
C         5.45357107231161    0.38044028450684    1.77015397299294
C         4.32963033252004    1.39404808730227    1.47288169095373
C         3.01556301999241    0.64144444308053    1.19200363862970
C         2.63633702273196   -0.21686563784791    2.40212509939074
N         1.31549243854489   -0.80199513827965    2.19407425057465
N         6.67693378244090    1.00384578138290    2.27634502623353
C         7.49930864465719    1.85426529778052    1.61422206915913
N         7.86870723571662    1.73723565981478    0.33266201247502
S         9.00671176853419    2.91701216661804    0.01246716669628
N         9.04807704351867    3.45822397762931    1.59156467454693
N         8.20623480172372    2.79622659022595    2.36428872229868
H         1.10456548798557    0.28194549630519   -0.92458347987654
H         2.30868377798301   -0.29006999938233   -2.17709776254937
H         2.35861149895571    1.33661313332812   -1.66486540205574
H         4.12329295271424    0.05710744463466   -0.40229327390584
H         3.35957746535429   -2.25448428070255   -0.68048763925091
H         1.90124893886815   -1.76772739264619    0.38378951959482
H         4.81201632092478   -2.34881272514053    1.05764513681058
H         3.41176321979568   -3.17000715454679    1.52875694090981
H         3.36618710382310   -1.91127565785398    3.46936589927748
H         5.80927017643680   -1.41884485902947    2.81466538302739
H         4.90974179569825   -0.19357369261968    3.85429935930957
H         5.55739044022805   -0.15254934733921    0.81729969607504
H         4.57921060499034    1.92102744386909    0.54123643742466
H         4.21913625181610    2.10367669545557    2.30832397408836
H         2.18550496106704    1.35283719548047    1.07263095426430
H         2.53453066994621    0.40740588468167    3.29920820365584
H         0.62623388358131   -0.20443342511170    1.73526172189348
H         0.98861981648578   -0.95695350130668    3.14829472392828
H         6.62778235482063    1.17375903669417    3.27910975895079
