36
 energy: -51.087691928499 gnorm: 0.130463042603 xtb: 6.4.1 (79825abcba525fcdf90b791dcacef51065a7a4e7)
C         1.37870180601271    0.39835202292658   -0.86696424492899
C         2.68647810731084    0.15413980045138   -0.08918491592707
C         3.19466139072750   -1.29322481975770   -0.21772433498962
C         4.38571041287532   -1.61439194021371    0.68141650387562
C         4.24522484436662   -1.16289386575485    2.13698450065914
C         5.30079477527626   -0.10299559412278    2.49269636279800
C         5.05953005516258    1.09527554846909    1.55288275272884
C         3.62850421772060    1.67034661603656    1.57462577732885
C         2.54513030502843    0.59136712533255    1.38974216933250
C         2.87838040958855   -0.52611626316663    2.38225306013886
N         1.82679241756533   -1.53369076168836    2.47842213882698
N         5.94908258964652    2.24580002030226    1.71557841484824
C         7.29166304240454    2.23742411166408    1.52762054843904
N         7.85178748391256    1.16875004670853    0.94732425103740
S         9.50524101318042    1.37399999081315    0.83149875208141
N         9.41306420810283    2.87904725712799    1.54878977468181
N         8.18661191510434    3.25580234786000    1.86169827303494
H         0.55040825545688   -0.16922155803128   -0.42863461934647
H         1.48637248157832   -0.05461962504742   -1.85913592971503
H         1.21422697997865    1.47397665112240   -0.97321470323850
H         3.42477504484052    0.83441068069724   -0.53638219914528
H         3.26034517156009   -1.51216171882249   -1.29202112671600
H         2.33476592825602   -1.93481886617440    0.02213783418578
H         5.24659583790009   -1.16102770841434    0.17184827276157
H         4.49245286318047   -2.70833094881321    0.65391909776196
H         4.30252683922574   -2.01883546932360    2.82889292596492
H         6.27450929874335   -0.54932025434753    2.25144932345085
H         5.25713662384377    0.09572629265399    3.57413820362610
H         5.35935874533922    0.66524769605137    0.58957256314267
H         3.56511280372469    2.43281355871863    0.78558449100986
H         3.51200918053327    2.31100180127164    2.46329635041576
H         1.55179635502581    1.02853058981041    1.56722931334909
H         3.06863556622199   -0.09331182140707    3.37286948959936
H         0.87250099342719   -1.20097823627036    2.62435554781930
H         1.93435682658632   -2.04092335732249    3.35736440975046
H         5.68019214382676    2.81962396803165    2.51260256670273
