36
 energy: -51.090116250312 gnorm: 0.135299708545 xtb: 6.4.1 (79825abcba525fcdf90b791dcacef51065a7a4e7)
C         1.27668662946832   -0.04605980270846   -0.67194623754935
C         2.70144464050800    0.05375141347111   -0.09318768184623
C         3.38221631068354   -1.32465860482804   -0.17175429219842
C         4.61333502814023   -1.43956207367985    0.72342402986241
C         4.17936237847111   -1.04671808156806    2.13749836524312
C         5.23830345249501    0.02287495729929    2.45175569488916
C         5.07680361528274    1.28588075824360    1.58224654864158
C         3.61753176000645    1.77907982328116    1.50290711432068
C         2.57969774361000    0.65447200606678    1.32902351569922
C         2.79345321723919   -0.44763833137115    2.37044753941833
N         1.71163295418129   -1.42060109372805    2.48577546094573
N         6.00875217239610    2.37684710910165    1.86989989382496
C         7.31726157060421    2.19566814755733    1.56510829536331
N         7.72092759940983    1.17802077410788    0.79439759181791
S         9.36620683282280    1.32944648576743    0.55031122472350
N         9.52592109708281    2.56666149770047    1.66024843760899
N         8.34556881414472    2.99327698926419    2.07111223495267
H         0.76760166205111    0.92391399279132   -0.69000627442202
H         0.62996469403674   -0.74870039124923   -0.13414713147334
H         1.35257392450651   -0.41254403735291   -1.69919493690412
H         3.16596081301331    0.70469629689540   -0.84706547110853
H         3.65470556485445   -1.44839702349923   -1.22854174842155
H         2.64561919084323   -2.08961904138456    0.11259970516592
H         5.48490604132797   -0.87099724928456    0.37211130711910
H         4.94069159170699   -2.48914083114455    0.73206817365722
H         4.29607263770848   -1.84131151756729    2.89225448210358
H         6.27125237411194   -0.31369292821964    2.29280793290522
H         5.27939182418249    0.51134258365610    3.43695821614760
H         5.30561005564659    1.01662875242468    0.54400829195749
H         3.50484268959244    2.51901164529360    0.69807016194363
H         3.38885184570405    2.28120908483298    2.45648838446488
H         1.59551647370337    1.11803096463508    1.48972891722898
H         2.90618301460251    0.12996934811528    3.29699973541412
H         0.81998314517350   -0.92406023604690    2.51854890638970
H         1.81357778493532   -1.98370179837853    3.33071295474965
H         5.83559307926134    2.89802917494887    2.72734298733749
