36
 energy: -51.087983766272 gnorm: 0.133462322470 xtb: 6.4.1 (79825abcba525fcdf90b791dcacef51065a7a4e7)
C         2.34180643476064    0.27163905028755   -1.27253661262140
C         3.32584257522056   -0.09689636858812   -0.14527724341307
C         3.17735283453534   -1.60751870713168    0.11086323709121
C         3.94679898744299   -2.13850805476711    1.31759572268458
C         3.70649269289306   -1.25501569374845    2.54395580862593
C         4.90778409577648   -0.42928991120354    3.03305608419256
C         5.40853242604430    0.60484915495784    2.00489288564288
C         4.26559207598615    1.55486529009308    1.59237480506616
C         3.07516318757609    0.67068814608578    1.17621666425500
C         2.61388044482681   -0.20619046563027    2.34378027826181
N         1.32025335210302   -0.79261767177474    2.00773821777850
N         6.47884848104539    1.40577119779166    2.60023110903436
C         7.48623265748639    1.85592269070482    1.81253741988650
N         7.27387122628643    2.03854627717196    0.50330150260834
S         8.61422484366009    2.75612509472071   -0.18806271403517
N         9.40109472135608    2.87486444318677    1.27989743895448
N         8.75341476383822    2.25027071478282    2.24655906367476
H         1.44775187804417   -0.33180488159190   -1.08053476270662
H         2.68140249334807    0.01644059596685   -2.28284805516333
H         2.05732373612159    1.32630459197755   -1.22715310587942
H         4.32042710152315    0.06077112328867   -0.58548042681319
H         3.30864969490553   -2.19801412268767   -0.80589061721193
H         2.09368282293075   -1.77280865939939    0.19414308108437
H         4.95171215971778   -2.26146069949684    0.89173800411206
H         3.63064732429513   -3.18000368099196    1.47311938141591
H         3.53767845198655   -1.94262513276485    3.38855739824808
H         5.76927912281692   -1.10331646061207    3.12813686503039
H         4.61105651906334    0.06629080453417    3.96968055346754
H         5.70172564614194    0.12558647855404    1.06301564231301
H         4.50452258802337    2.22303313943585    0.75307485613448
H         3.94480856879688    2.16688581634490    2.45043912386777
H         2.23712496287528    1.37238921222043    1.05524772868023
H         2.52589565077038    0.43878721413049    3.22757895624722
H         0.56883438072591   -0.11784174656353    1.85702892187079
H         0.97438774809218   -1.52188642902223    2.63218885011360
H         6.67666969251883    1.28230533554197    3.59141546640982
