36
 energy: -51.088987335280 gnorm: 0.119694403113 xtb: 6.4.1 (79825abcba525fcdf90b791dcacef51065a7a4e7)
C         1.81199613667799   -0.31792003324833   -0.91762786284205
C         3.03982437997877    0.16097929837178   -0.11890862748700
C         4.09514062939978   -0.95856731176719   -0.06831196275351
C         4.22577328084077   -1.76518536641661    1.22106882070464
C         3.88605746877475   -1.03487337384302    2.52241524074049
C         4.87424807872921    0.02594753080513    3.03454952605374
C         5.10805736578815    1.13141006049080    1.98545568270548
C         3.71908304453329    1.76673144423669    1.77067313835062
C         2.68027764827364    0.74625059043178    1.26909568552883
C         2.53657799973742   -0.34371469044653    2.33503601040247
N         1.57183301913444   -1.41590030000317    2.11147988520092
N         6.22484612296255    1.97829033744319    2.40623693344571
C         7.33758125934934    2.02399958379025    1.63315750908951
N         7.42181394054761    1.59555774886854    0.36749961813829
S         8.99286194882008    1.87225919315431   -0.12716808053510
N         9.55300505413669    2.42224781661404    1.34657628877542
N         8.52186978228422    2.53983498966228    2.16326145570859
H         1.30713482110351   -1.25025865720077   -0.64157969882054
H         1.95970926478923   -0.36112999047680   -2.00275213240734
H         1.09436576722794    0.48650814035011   -0.73538779793585
H         3.39992724031989    0.98270324875917   -0.75367783574966
H         5.04628243369159   -0.54633072217876   -0.43128799619745
H         3.82517004051195   -1.64939592008632   -0.87977281607387
H         5.23541725880442   -2.17862012211655    1.34761281183193
H         3.49201400665822   -2.58082403499982    1.14907217232243
H         3.82684608374233   -1.77983112008119    3.33247005873780
H         5.87454299359224   -0.41873063576471    3.11938609338689
H         4.60572813318480    0.53210710089453    3.97402407886797
H         5.57048912164551    0.64404702965170    1.11860974227119
H         3.72431860656604    2.58145233186725    1.03299913557468
H         3.46981583489823    2.26042490040903    2.72349956167278
H         1.75505395377085    1.32649557798850    1.14024378421652
H         2.33668919153187    0.21062540669813    3.26109711078889
H         1.62098486083685   -1.66479902313310    1.12238947750487
H         0.58584599031345   -1.25502380278246    2.31966937299630
H         6.37241475660726    2.05730104905284    3.41062943731520
