36
 energy: -51.089601632716 gnorm: 0.122075162853 xtb: 6.4.1 (79825abcba525fcdf90b791dcacef51065a7a4e7)
C         1.39108485090332   -0.37170821105142   -0.59751892617116
C         2.83508099565545    0.00208663662767   -0.21020557307138
C         3.74708888392791   -1.23799707883953   -0.20178599934721
C         3.51348136610928   -2.14902807973181    1.00056600063159
C         3.78991168763944   -1.27508248972732    2.22615574120890
C         5.21464870029360   -0.69719826279310    2.20834157848968
C         5.40224042391802    0.65297233295329    1.48781350379718
C         4.09954696248818    1.47549468468407    1.56171290033429
C         2.83707450236508    0.67885438682129    1.18276017543310
C         2.69636892251390   -0.22445506915564    2.41122933863947
N         1.41068942498581   -0.82653390793715    2.75008239327603
N         6.45734260583465    1.32187655269891    2.24992024339740
C         7.54202210534869    1.94372637849422    1.72580787138285
N         7.66304196890867    2.15534094787838    0.40932736771436
S         9.11782217093510    2.93774244001692    0.16251947639482
N         9.53319902752438    2.92906412855373    1.77978785385711
N         8.57740810299081    2.41750310495803    2.53398304390767
H         1.03675047996064    0.09155953366061   -1.52497403047062
H         0.72711831150570    0.10672622068454    0.13147343080591
H         1.23409871050158   -1.45269867857093   -0.64361029139263
H         3.16619604580936    0.70847495796461   -0.98429508169786
H         4.80405244108305   -0.94557388887317   -0.26243262266546
H         3.52515205980121   -1.78655260741961   -1.12829981023009
H         4.23676262160725   -2.97557690442754    1.00253216702568
H         2.49783745671210   -2.56766430158990    0.95513750738951
H         3.77294650274506   -1.84696551691832    3.16813173307796
H         5.99642952552475   -1.35591587716624    1.80779740552521
H         5.41355723984450   -0.48780980907526    3.27018184187849
H         5.79040727389019    0.65599324856250    0.46209177602226
H         4.24903559159624    2.26417386959362    0.81098076479030
H         3.96720899973543    2.02334917228191    2.50833195849233
H         2.04060573877973    1.43155964695389    1.27440171279099
H         2.88015011684028    0.40507067898845    3.29143350994186
H         1.01117747164549   -1.34543364372325    1.96662878549532
H         0.67740845186254   -0.15135409603629    2.96877337013114
H         6.59333375069931    0.93175064463996    3.18058219897790
