36
 energy: -51.089126070493 gnorm: 0.133630650406 xtb: 6.4.1 (79825abcba525fcdf90b791dcacef51065a7a4e7)
C         2.33694014387181    0.27514972453063   -1.31769937673547
C         3.18302436698537   -0.23955018037821   -0.13698578707801
C         2.88014137409120   -1.73066562062971    0.09640988639381
C         3.72072719634355   -2.24083825715635    1.26403124679527
C         3.66635648600543   -1.28300944068685    2.45645424315986
C         4.98783594442574   -0.58129381590289    2.81061566909322
C         5.48823248854599    0.42812831613999    1.75800830702012
C         4.30751511463934    1.39343152662973    1.52755091134232
C         3.04285075197004    0.59487807195937    1.16010827479822
C         2.61502917344691   -0.17545169905400    2.41249131189623
N         1.25950573022863   -0.71215998395127    2.34326329635737
N         6.58508163653200    1.19129486042854    2.35464799104215
C         7.51059751985838    1.87387827352139    1.63671984397869
N         7.64544691266240    1.88592684011124    0.30472213151872
S         8.88914481547461    2.95436189274585   -0.01326172071462
N         9.19193287627632    3.31254279672057    1.58929750772797
N         8.45505679270037    2.56912558822089    2.39452160655639
H         1.27176173737438    0.20512819668160   -1.07105232070048
H         2.55903541695304   -0.33519874275291   -2.20049570921939
H         2.52800569101695    1.31847333176005   -1.58280173399160
H         4.25273084080495   -0.10278925747810   -0.34878928830047
H         3.19573153821524   -2.33923274163936   -0.76173357813547
H         1.78614812163403   -1.75711987958769    0.20165197183906
H         4.73067332829994   -2.39148144409501    0.85950926369679
H         3.35251517079199   -3.23745217646817    1.54693261709554
H         3.39930361054640   -1.87792969080719    3.34494140794847
H         5.81450725636516   -1.29644996246846    2.91401790955016
H         4.71755446667072   -0.00279091794992    3.70682724969643
H         5.79891831392992   -0.02354840901699    0.80813981934682
H         4.56240591959121    2.16896483010048    0.79165743429530
H         4.13924031690782    1.87310849605156    2.50496542623604
H         2.32514450938137    1.39095285788359    0.91416404406623
H         2.72394715922263    0.40325402398214    3.33881422095100
H         0.41577694989730   -0.21568768162275    2.05291301484426
H         1.01899885646692   -1.08192646046188    3.26349354502018
H         6.61419450316957    1.44833930115155    3.33948507282491
