36
 energy: -51.098325762781 gnorm: 0.125176555016 xtb: 6.4.1 (79825abcba525fcdf90b791dcacef51065a7a4e7)
C         1.22138721354205    0.11724728476276   -0.70390413671628
C         2.58658976898774   -0.01744150461127   -0.00180732161624
C         3.10154828204320   -1.46677733092348   -0.06409878690172
C         4.42781197399322   -1.54455414188767    0.68768284705132
C         4.35046559381631   -0.95650416119846    2.09852640235760
C         5.34158017061085    0.20926159904837    2.24960636072764
C         5.06027992312601    1.32582854855269    1.22419892963912
C         3.60152529258795    1.77495928839741    1.44630448545322
C         2.60662109001440    0.59960006734494    1.41848508347220
C         2.99112660134613   -0.39751284017980    2.51521833576989
N         1.98040850643345   -1.44840132789617    2.44907903740442
N         5.94094130987637    2.45999840888675    1.50628827495686
C         7.26941553215118    2.20852003994913    1.40711428455153
N         7.79291916783158    1.34682093412640    0.52622493916070
S         9.44396631540806    1.33999652114055    0.77811461813320
N         9.35967063719552    2.33297221639738    2.11791451260889
N         8.14781908097769    2.82507855874937    2.30036590651763
H         1.01960297258450    1.19161526666629   -0.77711186052558
H         0.42116745927888   -0.39911957045872   -0.16150712185759
H         1.17279823579553   -0.25294910598185   -1.73147563246593
H         3.21730287370988    0.68776670962593   -0.56101974812666
H         3.36139309077131   -1.74440943783893   -1.09451732515587
H         2.29329113167044   -2.13194602024172    0.27185943849954
H         5.18387098167944   -0.93907566688128    0.16990569271511
H         4.74383124596354   -2.59729142616257    0.71467534729929
H         4.70051197287535   -1.68781071270704    2.84506174617458
H         6.35633613259731   -0.14446885414842    2.02450440170525
H         5.33002612491365    0.56202331058867    3.29188201208507
H         5.28370016187079    1.00044886554889    0.20096917378167
H         3.32356946555633    2.54116881950134    0.70899591193916
H         3.55997411535047    2.33099600428432    2.39648455933199
H         1.63648751300818    0.99283735373333    1.75542888176441
H         3.10965551257289    0.05123439426137    3.50991143319219
H         1.17786697064873   -1.19589118293310    3.02772573700593
H         2.38332767371744   -2.29350461369662    2.85509762282306
H         5.73347493139864    3.04979284017134    2.30998207049820
