36
 energy: -51.088907956689 gnorm: 0.122071827985 xtb: 6.4.1 (79825abcba525fcdf90b791dcacef51065a7a4e7)
C         2.36697999910052    0.51169277845667   -1.15401167979865
C         3.37630990177903    0.07073891137620   -0.07620281805310
C         3.29691414917846   -1.46452833731565    0.00309223325835
C         3.86712402196428   -2.10620190779526    1.26535845645953
C         3.66393315957853   -1.31755431052641    2.56112590391235
C         4.87717598122875   -0.50414020129068    3.04127426066093
C         5.39260060127977    0.55991055238889    2.05160489257281
C         4.20767149656034    1.52636181070173    1.84929477862906
C         3.01181579726159    0.74982344367352    1.26706202171851
C         2.57626458855384   -0.27193558764003    2.32119967051661
N         1.39011499757516   -1.00027367403362    1.88203579391416
N         6.67973868842465    1.07920912244587    2.51537712095351
C         7.50533120761137    1.68121723496872    1.62436430919401
N         7.69771531364659    1.40100550256359    0.32936732695530
S         8.78826774647307    2.55287875390034   -0.19344724167682
N         8.93036915926852    3.40929489760218    1.23292186524873
N         8.13900290630458    2.82502328052245    2.11406174522218
H         1.37941600613985    0.38393005807092   -0.69713437105666
H         2.43337597748797    0.01047055087740   -2.12640500639391
H         2.42729604859955    1.54231555272927   -1.51385626969177
H         4.39268317832144    0.42852594302688   -0.29255905438591
H         3.84966507714432   -1.89987253355104   -0.84029566342363
H         2.24026165893026   -1.69532211630136   -0.19392733675417
H         4.95063678035158   -2.17566377125872    1.09953398348739
H         3.53697918377927   -3.15046249361577    1.36219234848907
H         3.32879938757363   -1.95974327003083    3.39174945419549
H         5.72310498717837   -1.14183118659482    3.32985721005914
H         4.44730572563292   -0.04049390710991    3.94191656101096
H         5.60325243067196    0.12276591866182    1.06808159477218
H         4.51703477680658    2.40752739913781    1.26981052209406
H         3.90256643142293    1.89105263149149    2.84310413453595
H         2.22242393473846    1.50177988685569    1.12302077162810
H         2.35056859044524    0.21539560229360    3.27849127447708
H         0.54247599430757   -0.43478322538609    1.81574120989824
H         1.24804815920623   -1.60935495576867    2.68840514236047
H         6.76045046662795    1.46809571473671    3.45296781693581
