36
 energy: -51.087027806305 gnorm: 0.129859155438 xtb: 6.4.1 (79825abcba525fcdf90b791dcacef51065a7a4e7)
C         2.03780346756804    0.00363266585254   -1.26962003398519
C         3.17294195399819   -0.21123515651743   -0.24974186780258
C         3.16617626785964   -1.69774305023043    0.15011479439262
C         4.05160064017853   -2.06335609764187    1.33862269208022
C         3.73820310489860   -1.15889287173558    2.53277219614961
C         4.97683440606645   -0.35496273642460    2.96129512480726
C         5.47700765579393    0.72635505475178    1.98257630166665
C         4.26495379051133    1.53689711401811    1.47962366221739
C         3.06023522785872    0.71298528692205    0.98779028545224
C         2.68477018796824   -0.09351651432510    2.23417839532699
N         1.33757236008004   -0.65092353325112    2.16600581900571
N         6.49903632024189    1.48895929278823    2.70047068254821
C         7.48185727028697    1.94400987060765    1.88504895119468
N         7.20025573894439    2.11079922171949    0.58680807495086
S         8.56312744129986    2.73036493670726   -0.15357744804915
N         9.50085350607099    2.54196981658517    1.21512535351713
N         8.79761689707420    2.19661168295003    2.27824688746506
H         2.04725236363833    1.05541328308734   -1.57623226990942
H         1.05328246335720   -0.15453998436683   -0.81477861373670
H         2.23891849261665   -0.60339737699844   -2.15639887865734
H         4.08230115030533    0.02166405016000   -0.82128362790887
H         3.46436029126733   -2.34421617719256   -0.68625836630156
H         2.13528096724228   -1.91919045023063    0.46126247125183
H         5.08197113453543   -1.89896688678029    0.99564249638435
H         3.95763934520806   -3.13839777839568    1.54912024838568
H         3.39449922463185   -1.76646125463291    3.38564092136198
H         5.74626053181509   -1.13178510634730    3.06157590838894
H         4.80192408596035    0.03633820861118    3.97480526630352
H         5.93331433793081    0.33671412093961    1.06456113514118
H         4.75443493507325    2.07313093693251    0.65450432298859
H         3.72728974587532    2.20122857618545    2.17484059904437
H         2.23969640120654    1.43881757124729    0.89182478322472
H         2.68875984553892    0.62023334053297    3.06807454145277
H         0.63163251199883    0.07346765661988    2.02610362699683
H         1.09467394481629   -1.10798715532614    3.04548732120910
H         6.93169927487599    1.01737356902429    3.49245122281417
