36
 energy: -51.094474144437 gnorm: 0.128701342221 xtb: 6.4.1 (79825abcba525fcdf90b791dcacef51065a7a4e7)
C         1.55665926681328   -0.57550824565781   -0.63900560680247
C         3.00882143754028   -0.33274257970171   -0.18386945677083
C         3.75101217665773   -1.65227683301542    0.09473260273668
C         3.50172199006002   -2.13463484501017    1.52140193475455
C         3.60150838483523   -1.07854993870206    2.62457558831523
C         5.00271840231981   -0.45745267826310    2.74701622419112
C         5.45755019809832    0.48514328892695    1.61478266321161
C         4.36111445533092    1.40926092178413    1.04658406694888
C         3.00456400644245    0.68253946652857    0.98555618713519
C         2.65173594255656    0.08640267049889    2.35121929753398
N         1.25784881271208   -0.33717608535193    2.44039200873688
N         6.39784995503346    1.44507620515461    2.19430429286268
C         7.53909342245113    1.87993102481520    1.60575925725132
N         7.82562619979323    1.75029828138658    0.30435932575639
S         9.16832451113422    2.70992846946877    0.04799470189908
N         9.25539614665248    3.29252751471004    1.61041818339980
N         8.26721530605737    2.81455743212253    2.34464198460885
H         1.02435589598719    0.37583006925548   -0.74832782268120
H         0.96413731909786   -1.26598192026340   -0.02798616323141
H         1.59964038131918   -1.00843020678508   -1.64202138340512
H         3.56658775033634    0.14034586955556   -1.00418662357022
H         4.82309899565711   -1.44722390988749   -0.02751480724906
H         3.37123689359309   -2.37384791522459   -0.64262948521748
H         4.17909063930912   -2.95753295219088    1.78660562031202
H         2.47766016624041   -2.52073417037302    1.62665052436495
H         3.23850260413482   -1.47685926729951    3.58594608378852
H         5.71790167504830   -1.24933118955322    3.00579620869660
H         4.97602699774896    0.27554083572949    3.56733380975643
H         5.98759956619389   -0.06047962901082    0.82476305790948
H         4.83810623215482    1.69188429901527    0.09760393262944
H         4.31398774342252    2.30772239188105    1.68242333095557
H         2.27596839615043    1.43867653791922    0.65885906364514
H         2.74650099131099    0.90303345975596    3.07852342094759
H         1.04024195206586   -1.13976775445714    1.84780433394027
H         0.69130481902305    0.49552937825200    2.27600216224917
H         6.51177987477941    1.46916643929290    3.20586898719907
