36
 energy: -51.086396433100 gnorm: 0.128094572149 xtb: 6.4.1 (79825abcba525fcdf90b791dcacef51065a7a4e7)
C         1.77890960301662    0.34356225438744   -1.01372309264456
C         3.06492486728563    0.16114011867307   -0.18441859525794
C         3.47138289583860   -1.32061564869775   -0.09045825434677
C         4.38787775930753   -1.79502972630675    1.03433891661587
C         3.94425549089962   -1.26087614473117    2.39820988038592
C         4.98103097931136   -0.33190262386091    3.05108645955101
C         5.24802126918786    0.85833580630262    2.10802727723018
C         3.97859495355478    1.68854293365322    1.82815710302737
C         2.90293373292433    0.75964619632268    1.23470839689627
C         2.69395374009656   -0.40383503097203    2.20812569842457
N         1.49856230339283   -1.17978457107915    1.89311192035834
N         6.30878518218958    1.73962184645134    2.59751166541002
C         7.34986323573009    1.95981257650157    1.75751575552739
N         7.64078498189029    1.17483917722339    0.71265751902479
S         9.01887036000240    1.83371586651790    0.03722146502076
N         9.17542038324567    3.06504027734984    1.15413799496770
N         8.21436308979715    3.01418428211381    2.05847416108278
H         0.90948535621471   -0.22898633766848   -0.67220823686557
H         2.11421302835962   -0.00741787935739   -1.99635500881369
H         1.55349072128663    1.41324510040797   -0.99715850661208
H         3.78515568861212    0.76197129376581   -0.75722365561818
H         3.92380683708440   -1.72704144944184   -1.00505757545832
H         2.56619561123933   -1.92266788231840    0.07314502794360
H         5.44707412851122   -1.53565917968698    0.90337118155375
H         4.34630481516863   -2.89343527174362    1.05942905361827
H         3.64124733474206   -2.03486496560539    3.12193918868810
H         5.97895260564987   -0.75871349983342    3.21694988872684
H         4.66302629543131    0.14242619742332    3.99172350023493
H         5.55495020377722    0.43207124231122    1.14528077305261
H         4.22256738514976    2.37812155336464    1.00784057572515
H         3.69416463050993    2.26058901762622    2.72571387680852
H         2.02695113971904    1.42012840668249    1.15892194327116
H         2.56816661659794    0.09637176601531    3.17704691110923
H         0.61706194242283   -0.67363416130867    1.99024665945113
H         1.47571122489665   -2.15672225222760    2.18716138919722
H         5.93788026978691    2.64111526568420    2.89172698302779
