36
 energy: -51.093771694492 gnorm: 0.122830737034 xtb: 6.4.1 (79825abcba525fcdf90b791dcacef51065a7a4e7)
C         1.76654024254801    0.14271058059021   -1.18516023096022
C         2.92139672614825   -0.14524865668668   -0.20626028519000
C         2.96011320688189   -1.65615312663588    0.08581104922414
C         4.06161420681596   -1.90096633050409    1.11389780074030
C         3.74110029580024   -1.15316138339034    2.41017071924864
C         5.01865688792931   -0.40649979799261    2.82788925120249
C         5.35016629034368    0.67111036946122    1.77614314527817
C         4.12697198318311    1.52068376329365    1.37485127904014
C         2.85659664131727    0.69730161687158    1.09153869747317
C         2.56604166120394   -0.18190433991078    2.31116047401717
N         1.37735856938590   -1.02802554590464    2.27369639276094
N         6.33905817911302    1.59007601813952    2.34101049474503
C         7.52523900947516    1.94516803301427    1.78891875156007
N         7.67558418751726    1.93883100036686    0.45854150636752
S         9.14410494438191    2.63969505678286    0.08212680709027
N         9.61696507991934    2.75329689495497    1.67952098636510
N         8.61257868817635    2.47129498679291    2.48928901071660
H         0.79422392388850   -0.18210289684531   -0.79858551441711
H         1.87566613429755   -0.40912094924116   -2.12577409271209
H         1.92301107102967    1.19184621256121   -1.45000125867774
H         3.83630898082092    0.11170127381228   -0.75830062163392
H         3.20608280797703   -2.29313973208532   -0.77448444160492
H         2.02252208795730   -2.07212854814013    0.48139203950746
H         5.04369856566067   -1.60842892147280    0.71860702853914
H         4.13080831940723   -2.97627026687521    1.33249841031179
H         3.54326168736645   -1.91541550226225    3.18119948121711
H         5.87425347000056   -1.09339224640151    2.86862083468209
H         4.96323193553718    0.10117992365013    3.80262114186824
H         5.76128654272706    0.22066139878388    0.86462596500006
H         4.49072966111490    2.14111515197027    0.54376422222110
H         3.93053003087315    2.25134048401920    2.17566140336547
H         1.93992004374011    1.29215509837125    0.96833459388495
H         2.65620134211991    0.44013422590947    3.21103649895096
H         0.50946977429002   -0.54436979560970    2.03808557687659
H         1.14759410142764   -1.47198039452365    3.16336312832156
H         6.35405572173535    1.65211099701576    3.35725368663197
