36
 energy: -51.083882453310 gnorm: 0.122241819489 xtb: 6.4.1 (79825abcba525fcdf90b791dcacef51065a7a4e7)
C         1.39990232759321    0.36457995236008   -0.92858245078038
C         2.70819308867124   -0.00177954255701   -0.20124817664251
C         2.81067070566525   -1.53604670269216   -0.12941790550952
C         3.96452449146518   -1.95882455824911    0.77616514381970
C         4.09314155577912   -1.23468228631314    2.11830541711469
C         5.36281277856866   -0.37917017171049    2.26035173233854
C         5.18937848651563    0.93188240194121    1.46765145828594
C         3.78835240287538    1.56853214670848    1.57165846262614
C         2.68170380593686    0.54796293159292    1.24632005170886
C         2.79017970908701   -0.47990529492193    2.37619726019888
N         1.65733368702052   -1.39636215643613    2.46021436448843
N         6.15642535081410    1.91925696326105    1.94868366848960
C         7.44629066590280    2.14143886242816    1.59540863302990
N         8.25783082703710    1.22126037669419    1.05947809004684
S         9.76658890504425    1.92392291582534    0.92031602579387
N         9.32049476620457    3.40623132695339    1.54636078688474
N         8.03190677869815    3.38618582781942    1.83477113288675
H         0.73006607974393    0.84163328495075   -0.20464712650233
H         0.79418300282191   -0.47266460592259   -1.29369419760031
H         1.36937886287524    1.07812520645681   -1.75636923205239
H         3.65467516594763    0.36872096130568   -0.61926408351291
H         2.75655315609018   -1.81996203293764   -1.18905213229735
H         1.91749209792959   -1.99163696287615    0.32143292786331
H         4.94034938411136   -1.79637334937987    0.29898802086941
H         3.95524211255782   -3.04181453788616    0.96563585754159
H         4.17372812039519   -1.99812615460613    2.90907471450818
H         6.27945712912654   -0.87845225641178    1.91975469229146
H         5.48136112554067   -0.06295027122162    3.30766455699489
H         5.36634222921888    0.78746941401771    0.39498355298578
H         3.71585212934376    2.41606612700063    0.87567690916135
H         3.66938393153819    1.94642520707235    2.59966083955389
H         1.71608146696401    1.06960934767191    1.31548963689806
H         2.95282096160572    0.04361380401911    3.32715109266821
H         0.84288029492828   -0.79712968037274    2.60252535692275
H         1.69814499970022   -2.04518178074165    3.24682866285415
H         5.67030848676700    2.79209080801391    2.14534318660458
