36
 energy: -51.091925160032 gnorm: 0.139293735652 xtb: 6.4.1 (79825abcba525fcdf90b791dcacef51065a7a4e7)
C         1.49315871066569    0.26994066999705   -0.86297160027211
C         2.86206186629394    0.12527003490458   -0.17012700658897
C         3.44045528511612   -1.30110641849487   -0.19353944641114
C         4.49578619016604   -1.59528013525761    0.86944632869593
C         4.18632039972395   -1.06582665296172    2.27164985653040
C         5.14597215393769    0.04351279644828    2.73271118910706
C         5.10358505299279    1.26903635665917    1.79804156659275
C         3.64294082828316    1.75319034733720    1.69255342921119
C         2.70318884811651    0.59933499533501    1.29561304951076
C         2.76287011226221   -0.51578340015604    2.34339719419999
N         1.75385701405712   -1.53098974154299    2.05784379666447
N         6.01643222658233    2.36499766882106    2.12524022670953
C         7.27785197428934    2.23210203743398    1.64661764211789
N         7.62756398783392    1.15373548699823    0.93431535783842
S         9.20210992738077    1.33517741500428    0.40768875542230
N         9.40337502469626    2.64025001675585    1.42967119961568
N         8.30561343678110    3.11175451517974    1.99238281914179
H         0.81769773908109   -0.41928420716259   -0.34425745503843
H         1.52878243880566   -0.18168036724535   -1.86094470271343
H         1.24718150843325    1.32229074059867   -1.02839226337000
H         3.63009565038292    0.78155395884022   -0.60285292260266
H         3.88931365537579   -1.56298063148626   -1.16117023720134
H         2.57406053264345   -1.97475220655829   -0.12905350614623
H         5.45802528000954   -1.16548334095755    0.56010308919959
H         4.66897287029666   -2.68034820419585    0.90799806255303
H         4.27879385260143   -1.93875422592255    2.93806030020742
H         6.18357228369235   -0.31380281709166    2.69753583283556
H         4.93289585539309    0.36601297654170    3.76300482601750
H         5.38147440891667    0.85806059146379    0.81994948468099
H         3.65938119192160    2.54565126620399    0.93117583836669
H         3.40148535439275    2.21133788968894    2.66494511945770
H         1.67694850125343    0.99394166126988    1.27458438653930
H         2.64668786054000   -0.02819517460273    3.31992009355017
H         0.83249230953872   -1.29000736677527    2.42619263756665
H         2.07184607707630   -2.29595899963137    2.65374605831252
H         5.80063993406476    3.16540639529048    2.71651260365241
