36
 energy: -51.083821594945 gnorm: 0.135049078416 xtb: 6.4.1 (79825abcba525fcdf90b791dcacef51065a7a4e7)
C         1.96361636807236   -0.33842017841501   -0.92321642146941
C         3.27815788802314   -0.31285426241603   -0.11935944164482
C         3.76426917019616   -1.73704488449037    0.20469882199941
C         3.33679070692538   -2.10595608845123    1.62292551135245
C         3.44456893936608   -0.99559919053028    2.67066412666801
C         4.88344528359250   -0.51664817290242    2.92440384596457
C         5.67555160224994    0.17331300112492    1.79576168425035
C         4.71841092267748    1.23587493507933    1.21795703324673
C         3.27151143806506    0.75357340694886    1.00360981963005
C         2.65534070758792    0.26378147800050    2.31713179857379
N         1.21100455874235    0.06308996820464    2.25461703614206
N         6.92561614026744    0.70513617720269    2.33980477104719
C         7.52389313508064    1.70784557489036    1.65092227325310
N         7.35988222640901    1.83321668763792    0.32807309527317
S         8.33881174737445    3.11716876243693   -0.09926252384303
N         9.05356754446797    3.31654624066183    1.39657938699069
N         8.61864882955311    2.37076005160025    2.20921433097083
H         1.53285935245975    0.66511804072756   -0.83545391586600
H         1.17860131456932   -0.95337919596292   -0.46851026118948
H         2.17445239102070   -0.73392280183675   -1.92043018918496
H         4.01844171788059    0.07234886410482   -0.83450600363076
H         4.85624013026298   -1.85259523027384    0.22937327155790
H         3.39981717877406   -2.43461817430823   -0.56287084815429
H         3.95614612750650   -2.85750268409613    2.13076325321458
H         2.31219838592200   -2.50466648324560    1.63257814032423
H         3.07836543329822   -1.38214869212127    3.63561554794246
H         5.41426079652626   -1.41521423507168    3.26548991900766
H         4.88308022763973    0.22143478971124    3.74058168769450
H         6.05815745741989   -0.58067202324289    1.09725827102125
H         5.06029799672094    1.54680468069836    0.22076279175766
H         4.78954558312462    2.12028043098316    1.87103611549423
H         2.66958449060004    1.64688533143755    0.78224222278775
H         2.76467439904027    0.97379549861716    3.14704974419143
H         1.06907555543592   -0.76575973662500    1.67536698599026
H         0.82798973979501    0.81318209369088    1.67837406237259
H         7.13239640400040    0.67588946841753    3.33640399950751
