36
 energy: -51.086038466999 gnorm: 0.126388882431 xtb: 6.4.1 (79825abcba525fcdf90b791dcacef51065a7a4e7)
C         1.87801125830590    0.29396528740490   -1.15066766865525
C         3.02803357823080   -0.10774113373335   -0.20677164861695
C         3.05545534946704   -1.62722032517578    0.03831594744481
C         4.12833909401266   -1.96966625699977    1.06877775451199
C         3.87750413763879   -1.24000839720569    2.39049862400642
C         5.00332403683363   -0.37164001903213    2.97582674575969
C         5.32159094440772    0.71773405477104    1.93213986760816
C         4.09593629488923    1.55662760189291    1.51615586038246
C         2.91152011073506    0.64649808540805    1.14078909744951
C         2.65113313047667   -0.33489915232559    2.28707030550160
N         1.46655038831868   -1.18573826537370    2.23113606513698
N         6.35315343216187    1.63488226985063    2.41814205552207
C         7.41879430545939    2.04637181273628    1.68806912187315
N         7.50583850874140    2.07434020988020    0.35233392201474
S         9.09803990392110    2.45439438184054    0.02081436738930
N         9.52347173530469    2.75026711243007    1.60815092154859
N         8.47174250368060    2.62760585804829    2.39736648208541
H         0.94103284852883    0.17879632600304   -0.59465472636684
H         1.86377236771642   -0.34980018161370   -2.03754093985132
H         1.89156826687264    1.31553746874979   -1.53991814825051
H         3.97480173382629    0.26769695421897   -0.61970325474880
H         3.36443526064691   -2.11497054404938   -0.89602469613341
H         2.07692600014882   -2.10337952459580    0.19435979574597
H         5.13783107646432   -1.73735674297608    0.70370129433792
H         3.96340501832297   -3.04946421405546    1.19402035977489
H         3.62548904024483   -2.04252511680183    3.10261665533014
H         5.91352358787653   -0.94350332015840    3.19951164403575
H         4.56879632749128    0.03991461227940    3.89925585674035
H         5.63909546131778    0.19891675447052    1.01955716695590
H         4.34565667463058    2.14185362373919    0.61999143651584
H         3.82466698417317    2.26799256843330    2.31247135440195
H         2.03668639782758    1.30722519494941    1.05458273649470
H         2.46094049879948    0.39463444066305    3.08484538678747
H         0.69726820624423   -0.61348384981797    1.87985824649722
H         1.28867281839836   -1.32216323504301    3.22669737214088
H         6.38392589696199    1.63834372870360    3.43591637207371
