36
 energy: -51.085729705977 gnorm: 0.129228016291 xtb: 6.4.1 (79825abcba525fcdf90b791dcacef51065a7a4e7)
C         2.21077700536702    0.08677732728519   -1.35962290095951
C         3.20126358567511   -0.24818489505188   -0.22754704449899
C         2.95407894812770   -1.72013992987458    0.14912927445689
C         3.80491185676889   -2.12458579208579    1.35025674727122
C         3.63164263777635   -1.13659953704681    2.50616582118426
C         5.00192016422278   -0.66645526816981    3.02138129384477
C         5.57112503145272    0.31640873428578    1.97864633853212
C         4.47808102048292    1.26902512147892    1.45253682736723
C         3.12087045644567    0.70918803121067    0.98709125487065
C         2.64111452038105   -0.00067958512410    2.25627397032015
N         1.32155494312220   -0.60037572368713    2.08475374319067
N         6.67103550123284    1.11878961384207    2.51517410752300
C         7.54899973212341    1.80238160457868    1.74070562703281
N         7.29156941665535    2.13291100392121    0.46908169856645
S         8.49049155326093    3.20652601940305    0.02255266007660
N         9.38211539827141    2.97558127358921    1.41533465912723
N         8.71289713651941    2.29895291867640    2.33095595281636
H         1.24992941779685    0.19745018981467   -0.84497131189641
H         2.21632686767323   -0.68082045717301   -2.14189124924627
H         2.47800641803732    1.00603886015294   -1.88769120388886
H         4.17973966948181   -0.06006914619927   -0.69126380727873
H         3.25034985587464   -2.37454752486940   -0.68173506573032
H         1.89013007722508   -1.80769996338528    0.41169928126980
H         4.85049384284119   -2.16199268207452    1.01606871445088
H         3.58054119468830   -3.10375598730593    1.79717523011796
H         3.26204927709193   -1.74924508073896    3.34445156282131
H         5.53413413465685   -1.62492496306046    3.08146402361510
H         5.01895346493981   -0.16006274168998    3.99820745505506
H         6.08648589524783   -0.23603544015617    1.18366437340229
H         4.82834205505173    1.77925093200738    0.54427074448590
H         4.36030027903045    2.03655316149220    2.23405710099255
H         2.48100603802971    1.57950289823927    0.78105378021754
H         2.58704236983366    0.72167001063985    3.08097079106711
H         0.58977006327668    0.00893428520190    1.71610960699008
H         1.05606056560727   -1.14947527127581    2.90292055838047
H         6.77694456816408    1.11066871319976    3.52786399634469
