36
 energy: -51.087412023752 gnorm: 0.134357591002 xtb: 6.4.1 (79825abcba525fcdf90b791dcacef51065a7a4e7)
C         1.36542836677608    0.04922872029357   -0.89743606464315
C         2.68602739631585    0.05247618277644   -0.10316481499506
C         3.16424594841900   -1.41066248538930   -0.09015539155729
C         4.30495851490971   -1.75497351963732    0.86400660073955
C         4.16048931219392   -1.02620027053905    2.20202122051611
C         5.27526032908829    0.01417702447977    2.39961638307847
C         5.08319791640203    1.18406588963958    1.41382525255978
C         3.64904531658160    1.74612373964916    1.49327191237438
C         2.58358891348596    0.64706251543657    1.32314010729994
C         2.77520742323264   -0.41605680566591    2.40847982662737
N         1.73682058729689   -1.44072995397402    2.36276440438869
N         6.07012469870708    2.19901875611235    1.78440102765257
C         7.39746581354643    2.17621217944651    1.50950821196397
N         7.89589507411396    1.44000278958944    0.50845303232087
S         9.54238681039115    1.70234461481381    0.60690812038854
N         9.53396973009752    2.55231027770463    2.04414775843542
N         8.28438489948680    2.84457069904945    2.35585749264282
H         0.53234261785983   -0.34673994081321   -0.30623407411137
H         1.33260115033985   -0.76032768944695   -1.63548872971371
H         1.00602377535743    0.96046351471945   -1.38301712057402
H         3.31826860750848    0.67412972992237   -0.75251385378347
H         3.35154062260668   -1.63117378604122   -1.14971039172996
H         2.30182462832668   -1.95038329606871    0.32641141518022
H         5.30212809614690   -1.52835665855514    0.46323203061511
H         4.24810281657097   -2.82663625671669    1.10308614166310
H         4.35003351980108   -1.71794293478443    3.03881385316034
H         6.26278622534891   -0.43674117928074    2.23532638227583
H         5.21202067233754    0.49878005251159    3.38555428966022
H         5.38790546260476    0.84755639294046    0.41547541213546
H         3.65875802118215    2.54921509791509    0.74299835661568
H         3.59268644266056    2.22157982390711    2.48549706420571
H         1.67488302157503    1.22389395433780    1.54862852364143
H         2.72938392872266    0.08329849779922    3.38489270918670
H         0.89716618084396   -0.98009014423712    2.00856424519304
H         1.43545949120170   -1.87963545928346    3.23336073661562
H         5.91739945462973    2.61538622240919    2.70099070798714
