36
 energy: -51.092211649129 gnorm: 0.126605940379 xtb: 6.4.1 (79825abcba525fcdf90b791dcacef51065a7a4e7)
C         1.71556892737940    0.08613671177429   -1.05490763951228
C         2.99581073106566   -0.08761857055510   -0.21487840968958
C         3.12396865931163   -1.60148427275930    0.03295834935937
C         4.11070645433868   -2.04168077134917    1.11127918548111
C         3.93763052342342   -1.15766391336438    2.34854379576543
C         5.12996560387722   -0.24382362287414    2.67622664775054
C         5.26496699180127    0.94320564935135    1.70152251995410
C         3.92875197866092    1.67900497745828    1.47317366193472
C         2.81904054772612    0.66954031435690    1.12446279280935
C         2.68015755400895   -0.29100444464059    2.30893220999704
N         1.43997718056426   -1.04996862501072    2.18158186349299
N         6.18318521023878    1.92649982274956    2.27727250110027
C         7.41639479848127    2.09350479609808    1.73947692201130
N         7.72468481287052    1.55057673472572    0.55510626267444
S         9.28699928115761    2.04402586742204    0.23086386823550
N         9.46054851227650    2.97473038950626    1.60630561910731
N         8.38187007759245    2.88636670661304    2.36306585713227
H         0.83907496187069   -0.40774530684185   -0.62110849318496
H         1.92732165495967   -0.24949956897228   -2.07651910907438
H         1.49933708272439    1.15773941162575   -1.04004502236922
H         3.83254959961499    0.25792988887448   -0.83801605077955
H         3.46001182002721   -2.14145877150114   -0.86251014497099
H         2.09017408636484   -1.96315518943445    0.12814175763264
H         5.14666268270018   -1.94385159215089    0.75978703198549
H         3.95645882553399   -3.09736532094338    1.37696767208196
H         3.72409440817803   -1.77966092779557    3.23295253641210
H         6.03638832055725   -0.83197849134546    2.48129715239048
H         4.95787516848785    0.21626927308500    3.66091557153127
H         5.60467220927851    0.58472706548601    0.72229773964299
H         4.14598268401607    2.44919096886281    0.71979142445896
H         3.68149764948720    2.22358655948364    2.39839889012418
H         1.86146039168255    1.19641595429059    1.24598716830827
H         2.68478719200024    0.35247262363451    3.19817537175581
H         0.74258536342226   -0.38988677924704    2.52886115729728
H         1.42013442922374   -1.90621792691371    2.73641328608367
H         6.07032725207916    2.36627040875801    3.18869359152846
