36
 energy: -51.089409613508 gnorm: 0.127895053465 xtb: 6.4.1 (79825abcba525fcdf90b791dcacef51065a7a4e7)
C         2.40237172136060    0.45787309602482   -1.19334254433695
C         3.24166559749464    0.02346867500178    0.02392393014933
C         3.32386533838933   -1.51142788078562    0.10742633605224
C         4.10148923184100   -2.03841543268310    1.31066590512135
C         3.91295910192261   -1.17511506792973    2.56023929669706
C         5.01120467855152   -0.20472632151997    3.02536874030151
C         5.14467472250549    0.95115967269411    2.01372389394110
C         3.83575734559984    1.73380459460232    1.78303664474613
C         2.78251762120516    0.70187194171397    1.33820102915696
C         2.61907791589510   -0.37624875948903    2.41330369014337
N         1.40900876332630   -1.17197651165096    2.23207982950165
N         6.28553476317230    1.74961233061237    2.46360372435458
C         7.33682872614375    1.96938513319866    1.63631808733216
N         7.55255827972322    1.27650618989749    0.51118388238211
S         8.95473929965237    1.88255848070866   -0.16412395540033
N         9.22563029063200    2.96965666704907    1.07402218141968
N         8.21785130491228    3.01307612145265    1.92639394806232
H         2.40296076579807    1.55338554786683   -1.17938029977245
H         1.36085145052995    0.12066099481541   -1.14133823987385
H         2.79213778786590    0.13338731503261   -2.16189860436017
H         4.28033953036906    0.35309095344104   -0.11870083816795
H         3.90431628497239   -1.77198863270289   -0.78786472696841
H         2.34235206626553   -2.00240722655159    0.04286684229421
H         5.17062054624279   -2.07457070619224    1.06172089968073
H         3.84321612274993   -3.07941393641637    1.55247097664068
H         3.78023705356214   -1.88827381373844    3.38996589874295
H         5.92039079621010   -0.82007556281918    3.04123383910523
H         4.77831753319531    0.09194991726734    4.05912869326288
H         5.58730935410652    0.66671196965911    1.05146000651094
H         4.01463878918468    2.43476365672309    0.95562002726533
H         3.53550558627463    2.35383817418008    2.64277657768566
H         1.76091257922795    1.07222964103274    1.16942847051171
H         2.41825351946911    0.21664621856805    3.31495921098763
H         1.58940658708324   -1.77357087347197    1.42696670359137
H         0.67569269518450   -0.50851940297975    1.98015380232161
H         6.16719413259019    2.43886842374969    3.20370170107904
