36
 energy: -51.091362974814 gnorm: 0.131366552874 xtb: 6.4.1 (79825abcba525fcdf90b791dcacef51065a7a4e7)
C         1.96072355137767   -0.28395936409813   -0.94562826173585
C         3.27083425102975   -0.23964143829866   -0.13537830659942
C         3.80009400125938   -1.63344611318183    0.24780516024811
C         3.35772871048951   -2.16996879591455    1.60672262057848
C         3.53256194768657   -1.10001686459140    2.68695456705745
C         4.93379079052648   -0.48005143077132    2.81479705889175
C         5.51172484755256    0.47808653890019    1.75400684270048
C         4.38284811752270    1.45798834664897    1.37394869085627
C         3.06500729252835    0.72643968961864    1.05738936327248
C         2.57960579634213    0.04202344512239    2.33835086025555
N         1.17772200895145   -0.36352323757748    2.36171459933549
N         6.68034614001378    1.08217701349132    2.39500539749332
C         7.48911389461983    1.86786164066769    1.64233347785871
N         7.40110845082616    1.96740601037072    0.31008221438147
S         8.71384334191079    2.87069920990754   -0.19015790241193
N         9.33948570071536    3.05979240050758    1.34639201755976
N         8.63111363476500    2.39973199149301    2.24448479407808
H         1.73825660757908    0.63187661279663   -1.50428356668887
H         1.10998518261372   -0.56929874791551   -0.31633771222361
H         1.96327104239449   -0.99932175007631   -1.77240491079756
H         4.01032714562124    0.19973768924606   -0.81943420003693
H         4.88479782806539   -1.50616230064676    0.36432875949670
H         3.77918026387384   -2.49033393066050   -0.44060086160700
H         4.02625976139849   -3.01116356089103    1.83427527424306
H         2.33683154037467   -2.57473185024414    1.55391701663169
H         3.29278107467284   -1.51134371092320    3.68092245043591
H         5.61690474748303   -1.33567569585510    2.89718786777468
H         4.92872430783010   -0.00650375648797    3.80809450362014
H         5.86474387957198   -0.00467170743148    0.83470833305408
H         4.68737479126536    1.99404030339884    0.46407383361571
H         4.21507628269438    2.27160673470273    2.09756686563030
H         2.28253097040519    1.45134970140011    0.78987829154225
H         2.76769843236327    0.75065533776981    3.15523493954865
H         0.95968676087433   -0.69246554724837    1.41994823266161
H         0.58819497391164    0.46767285562995    2.41617051502020
H         6.79969533156394    1.05326633876870    3.40581865116970
