36
 energy: -51.091711879106 gnorm: 0.128953987480 xtb: 6.4.1 (79825abcba525fcdf90b791dcacef51065a7a4e7)
C         1.11504067818955    0.09150007286668   -0.65856884191329
C         2.55623451279593   -0.03318532950527   -0.12727514661199
C         2.88853498594890   -1.53506402459292   -0.06749469260613
C         4.20791256776287   -1.74523499732099    0.67093015374853
C         4.22669089071027   -1.07805966377283    2.04816988958183
C         5.35573903006960   -0.03475414922429    2.07828633915403
C         5.11799171214145    1.12611139602242    1.09178778902818
C         3.73390248047322    1.75299876321349    1.35697385824636
C         2.65802315898109    0.65555630576882    1.25607087464871
C         2.91517782438873   -0.36358659933191    2.36967842357437
N         1.79862973598847   -1.28584604505365    2.55147502554335
N         6.03496897945632    2.24663641937950    1.30405296868135
C         7.38400157722528    2.11413627383645    1.32585552329703
N         8.12400652381035    1.10035474679644    0.85982213565460
S         9.68339700463603    1.49934695213681    1.30542084869101
N         9.34986967247756    2.94657343160660    2.06861498189025
N         8.04825961563905    3.15235626205262    1.98197759109596
H         0.78694354510740    1.13647007453362   -0.68563900357320
H         0.43917857454667   -0.34504185408721    0.08562366967557
H         0.97718395507926   -0.25154122678242   -1.68746516760225
H         3.20805094156509    0.56252623817758   -0.78156811754489
H         2.87535071660944   -1.92907607911955   -1.09264930410014
H         2.01749279126645   -2.01101444100034    0.40510837992580
H         4.95606637046300   -1.27026461100356    0.02209147944365
H         4.47365591065018   -2.80997551655284    0.73846305330362
H         4.48791015597115   -1.73769105544032    2.89156049043465
H         6.30828151552590   -0.51249730843998    1.81380555862359
H         5.61551602418157    0.36556752248481    3.06983630614077
H         5.29267005428311    0.85930818070073    0.04245885410712
H         3.61401165094664    2.57871385960711    0.64158500142813
H         3.79980957739849    2.27121934760152    2.32694767830888
H         1.73599814687624    1.18977110518234    1.52775140893227
H         3.01320937186593    0.24422242274707    3.27841138623337
H         1.05966413168526   -0.94322544868021    3.16727309308888
H         2.21131951395039   -2.11811171184081    2.97386764512824
H         5.94578942633917    2.92002131920237    2.06261956469275
