36
 energy: -51.082793910346 gnorm: 0.138113755910 xtb: 6.4.1 (79825abcba525fcdf90b791dcacef51065a7a4e7)
C         1.87973340011477    0.12352607797190   -1.16611196775165
C         3.00351092473730   -0.11572556117968   -0.13910572168741
C         3.12628202793557   -1.64008096070843    0.03669184111468
C         3.90826224591047   -2.08832695517903    1.26867510294690
C         3.75070560552987   -1.19015814542726    2.49779411448733
C         5.06474743639889   -0.46220135906447    2.82569060428704
C         5.30957335499530    0.60066252636592    1.73587747083922
C         4.11201619413659    1.53234738424769    1.45868690776246
C         2.84691861964915    0.70441437654815    1.16520310457969
C         2.57805980180932   -0.22145272558319    2.35490374201237
N         1.33058557725292   -0.94656473733372    2.13510210174094
N         6.41059208583781    1.47091285712051    2.15048848370461
C         7.47492619469653    1.96914867198334    1.47456348152718
N         7.67001091040850    2.15075335707790    0.16250054290529
S         9.19365955736039    2.83464045713420    0.14685081597644
N         9.51093908259385    2.83377562097466    1.78621142611699
N         8.46589145810161    2.30723622408918    2.39831688574382
H         0.95760148329075   -0.39860899847802   -0.88792046123317
H         2.21080437476912   -0.25742777014668   -2.13896709834481
H         1.71006857758828    1.20233306073465   -1.21806194331235
H         4.02051023685323    0.14840789703320   -0.46125807305027
H         3.53083656457775   -2.16320267379633   -0.84025775623472
H         2.11022616870227   -2.02424800033850    0.20593469768864
H         4.96966102952119   -2.35105489310594    1.16509298340181
H         3.48138523878213   -3.03454083918361    1.63103942851489
H         3.68773889399631   -1.86701406441086    3.36529515437720
H         5.87274835720465   -1.20561180106179    2.82680086317017
H         4.94705680769746    0.07873606982052    3.77671557576961
H         5.61669554431521   -0.01951718515418    0.88508913083660
H         4.41740949392878    2.25018568534162    0.68447533837758
H         3.90333518405649    2.04996935808750    2.40856335827966
H         1.96700177244929    1.35247782900601    1.04237806539930
H         2.47824203963103    0.31681721884931    3.30629192254744
H         0.58946777645574   -0.24562587430547    2.18087782765231
H         1.09228911140646   -1.51156324792215    2.95081405740174
H         6.37894272125728    1.59879470391220    3.16017559019468
