36
 energy: -51.089501753698 gnorm: 0.129979339137 xtb: 6.4.1 (79825abcba525fcdf90b791dcacef51065a7a4e7)
C         1.25334638725870    0.41275990108756   -0.63579284218683
C         2.68876996326531    0.17431037776960   -0.12828905319353
C         3.01896795636924   -1.32756752316643   -0.19878004729760
C         4.16141166766846   -1.80959919200000    0.69153907000020
C         4.12022868022313   -1.25830957489189    2.11865103756781
C         5.25438754375460   -0.28614901414036    2.48297320066618
C         5.17566052944407    0.89012809361083    1.48924977305049
C         3.80144774947120    1.57878973274889    1.61691663109936
C         2.63127948901155    0.61194887667064    1.35614336103854
C         2.82901999416078   -0.49153836023396    2.39927191644118
N         1.74342843707339   -1.46008354803319    2.28221070571291
N         6.11370088797566    1.98412460637786    1.74367478550494
C         7.43201528346030    2.07903958870028    1.44208080184949
N         8.21496602066495    1.08107893323122    1.01358326495207
S         9.73307029064888    1.77550868513562    0.96280510008784
N         9.30496102552902    3.31435922029715    1.44945871555722
N         8.00790520855350    3.32511288255934    1.69759563425908
H         0.49784274510676    0.03862054400069    0.06390481743981
H         1.04022959036405   -0.02241412565385   -1.61884204129466
H         1.00072450256722    1.47131019341736   -0.74049681086819
H         3.38943598451124    0.82483916795073   -0.67024443884189
H         3.26980692966333   -1.69386955880595   -1.20340133427795
H         2.11562391438096   -1.90280781665638    0.04954456912743
H         5.14529834006606   -1.69182837349398    0.21780955618380
H         3.89687899639254   -2.87677476413312    0.68816837497367
H         4.11420867506873   -2.08508432275049    2.84739246636978
H         6.26538049323970   -0.70662245097031    2.40160275551194
H         5.05475433151662    0.03338146112807    3.51687829096254
H         5.47975949988257    0.46834404065251    0.52363611197757
H         3.67336539624577    2.36842546704010    0.86323846740540
H         3.73767325802844    2.05358441532826    2.60900955371470
H         1.71704737375590    1.17815865899429    1.58616948358344
H         2.82673187175834   -0.01434568591317    3.38776547182776
H         0.84061631254031   -1.07764084356118    2.56740212434088
H         1.84759407981956   -2.43822569127891    2.55383909159996
H         5.78218175198051    2.89343779830122    2.06001017860526
