36
 energy: -51.096145511999 gnorm: 0.115643577105 xtb: 6.4.1 (79825abcba525fcdf90b791dcacef51065a7a4e7)
C         2.12247290353084    0.23029810730100   -1.28096029846485
C         3.12773326372502   -0.23008588606160   -0.20748124996626
C         2.92426465776835   -1.72329871268598    0.10645006041982
C         3.74998326949963   -2.23194041560439    1.28529384249140
C         3.68293974458057   -1.27022372210067    2.47393633741544
C         5.04186389633479   -0.66922411631389    2.86924344871506
C         5.62226328746086    0.31846355341469    1.83729305688574
C         4.54779967389682    1.28069059047482    1.29079377901280
C         3.14112605827091    0.71551232647678    1.01891053018391
C         2.72835449509384   -0.09902939571611    2.24815580323680
N         1.33041014468621   -0.50024361638065    2.12539243440626
N         6.65097681899690    1.08200116510467    2.54456877834973
C         7.48051524585167    1.90859849228657    1.86154353482053
N         7.49533078042330    1.87831218276953    0.52310761590601
S         8.72116671589581    2.88161264582721   -0.00619958387952
N         9.13233021895443    3.36867424380098    1.53713635700893
N         8.38562216695199    2.78818721863747    2.45882136959433
H         1.19021752448175    0.61505383732388   -0.85293488460644
H         1.69819512342804   -0.66249497865970   -1.75434153735422
H         2.61558743510465    0.85815776934449   -2.02791394912792
H         4.12841672635243   -0.13699865601481   -0.65223239555508
H         3.13864796819381   -2.29130534149060   -0.80884746346759
H         1.86099477017705   -1.85503034940931    0.35282554321108
H         4.81194785336049   -2.31735116281372    1.01835036120973
H         3.48596649290471   -3.27116012030604    1.52854294542840
H         3.35566358066036   -1.74438492722493    3.41346720000820
H         5.71518673762124   -1.46951283456611    3.20345910687746
H         4.78229736452860   -0.12655874616411    3.79068383650074
H         5.99449024017087   -0.30826834767890    1.01787746048899
H         4.97544169705902    1.81000753668622    0.42771423454446
H         4.36933549061305    2.05293503664182    2.05599609377528
H         2.46560846356503    1.57808980881400    0.92424305196017
H         2.93758729306154    0.56290311854018    3.09839374800065
H         0.66544087406310    0.27109108486294    2.19972238075599
H         1.13669973717752   -1.14318780766798    2.89382822075096
H         6.43253867537589    1.26639292134838    3.52186502389049
