36
 energy: -51.094167105476 gnorm: 0.133961338508 xtb: 6.4.1 (79825abcba525fcdf90b791dcacef51065a7a4e7)
C         1.62261386954757    0.39771874844390   -0.89342263229925
C         2.87421505775436    0.06389234913126   -0.05860918717951
C         3.26605316956395   -1.42462233555623   -0.07919583190080
C         4.24359026700584   -1.84823764663236    1.01404318950924
C         4.00261630402580   -1.17860407565558    2.36895545483026
C         5.16738655550679   -0.21570167549451    2.65227914188967
C         5.08312574397193    1.05966691035637    1.78992941164506
C         3.68725493749988    1.71395740115753    1.74030053188340
C         2.62444820197851    0.67230249578855    1.34346989839592
C         2.68647895118642   -0.40529808721005    2.42967047988966
N         1.61740243547627   -1.37571916894939    2.21601083157698
N         6.17175788355325    2.00127333050730    2.05400807183453
C         7.35362510624432    2.06420904662722    1.39283519513312
N         7.99896015363896    1.03627078082945    0.82765111098934
S         9.52127822084900    1.61876974272336    0.46337877703522
N         9.27139407709404    3.09289114726116    1.20681287197333
N         8.03287568792723    3.26015774801270    1.63358617551477
H         1.40860092192067    1.46942121229351   -0.97085071340903
H         0.70873228511135   -0.04945233378911   -0.48594331120112
H         1.81131702345216    0.12305496849223   -1.93470087715663
H         3.68072848498781    0.59905873042049   -0.57915624878556
H         3.77735534696969   -1.60993233090535   -1.03344505632401
H         2.40478388818706   -2.10558322704122   -0.02347830871566
H         5.29286363382069   -1.64821042029492    0.75843195241343
H         4.27951763567573   -2.93872037600460    1.14972377719266
H         4.14222308339887   -1.91033593663893    3.18119631165732
H         6.14266292653156   -0.70223426759801    2.51943404178780
H         5.10223591605650    0.17630708301886    3.67843575612614
H         5.16869709775566    0.75278699751979    0.74050577406380
H         3.67752006347561    2.55342556530436    1.03096361306676
H         3.44713864607016    2.10034533213008    2.74369181051902
H         1.63739653815255    1.15356965373217    1.40209419477401
H         2.61289914592520    0.09631037768248    3.40322712240148
H         0.73339278903936   -0.93800436373887    2.47982704264896
H         1.76377224229958   -2.12552514133255    2.89259149923976
H         5.89029729714562    2.90777143995346    2.42260623237460
