36
 energy: -51.091597523889 gnorm: 0.127562871531 xtb: 6.4.1 (79825abcba525fcdf90b791dcacef51065a7a4e7)
C         2.46466486833549    0.44858878391279   -1.22788250327688
C         3.36631259731412   -0.09081671601354   -0.10052622533605
C         3.15206470428677   -1.60888546318770    0.03804516383861
C         3.99837480145125   -2.10192925661895    1.20888559836554
C         3.74629622442501   -1.29065360370706    2.48189503284099
C         4.91254927131638   -0.54137396565644    3.14715959692394
C         5.38994283988413    0.49296559067781    2.10814609284804
C         4.31013062959337    1.50585769309404    1.67563068905671
C         3.08262595725402    0.70975363214357    1.19445685397248
C         2.62953051665650   -0.26733721530029    2.28298821770491
N         1.28778359345515   -0.78214008269008    2.02806607040359
N         6.64064941121453    1.07969034170932    2.59081293912733
C         7.42532565112458    1.75732928256622    1.71730891796493
N         7.15824770502144    1.96079485327585    0.42123076414983
S         8.45773359170959    2.80302325968988   -0.20442042523105
N         9.24049870600471    2.95676450007577    1.26248538587080
N         8.58407110520491    2.34349134666224    2.23049375687342
H         1.43604986444288    0.47881400760675   -0.85187660563075
H         2.36478194380619   -0.15124321620339   -2.13969712131482
H         2.74828774710458    1.45930280829380   -1.53337338636681
H         4.41719746218675    0.09430938620980   -0.36359568596248
H         3.60304817699502   -2.07177275319759   -0.85004861751970
H         2.08891980907886   -1.84624409792425    0.18630429543838
H         5.01200352079475   -1.98846775989841    0.80144737711574
H         3.79429730834776   -3.15953454254920    1.42951203036901
H         3.43247966643634   -2.00267500749357    3.26240862679288
H         5.79081074127801   -1.17398414946972    3.33151506298851
H         4.62854680042377   -0.12862597250045    4.12690168136381
H         5.74781286841040   -0.03386412394586    1.21530388546093
H         4.88017743654262    2.03621680401083    0.89992050426142
H         3.88936033811829    2.17449875368392    2.44349592175590
H         2.31014891890940    1.47395743477999    1.02534845118004
H         2.66235347924371    0.28982065223990    3.22815240640548
H         0.70222351220101   -0.17680113068593    1.45070098956199
H         0.81682300391436   -0.74952119981899    2.93279069533699
H         6.91244894991870    1.14679195846468    3.56981542325146
