36
 energy: -51.098546641264 gnorm: 0.117649576277 xtb: 6.4.1 (79825abcba525fcdf90b791dcacef51065a7a4e7)
C         1.93220584361364    0.26917596032532   -1.12663888100656
C         3.04992267077765    0.04695295613500   -0.08924540215537
C         3.48535104160412   -1.42566055804191    0.01775278935197
C         4.27750866782935   -1.78887029453267    1.27105457980344
C         3.84921296649615   -1.09502383266129    2.56620123015835
C         4.93225228419582   -0.09554849203274    3.00462807300641
C         5.07899243016703    0.97883283363305    1.90850573341897
C         3.75757691694752    1.74971601044929    1.71199962982220
C         2.72230839183583    0.69496491543379    1.27864411327695
C         2.54841064677347   -0.30663943166875    2.42383013250868
N         1.43124914566349   -1.24589945827616    2.42957489163526
N         6.25166012764068    1.78720112208202    2.24446907816662
C         7.37577054577940    1.98169968829895    1.51203021242424
N         7.59215613656801    1.54372645452387    0.26547328518777
S         9.19061544017548    1.91654001861744   -0.04337873349166
N         9.46621485152149    2.75906716626893    1.37167010733868
N         8.38908979434653    2.71345838703821    2.13440388124788
H         1.64721214042995    1.31772994281957   -1.26683868078871
H         0.98917018311124   -0.21392003599832   -0.84649078700251
H         2.30503392029722   -0.16503380462172   -2.05818092764254
H         3.89893137008678    0.60645725222657   -0.50634904387957
H         4.07766726002211   -1.75346472333725   -0.84715603279691
H         2.56382577048690   -2.00462125434838   -0.13778722275697
H         5.34454071763442   -1.68964074571216    1.03039143570701
H         4.12572352802161   -2.86176525266706    1.45736162228368
H         3.72798519827238   -1.94225919893487    3.26057354563466
H         5.91676997739676   -0.56302944404240    3.13771565858355
H         4.64820568265644    0.34857086217340    3.97054133842725
H         5.40073110646983    0.53502238705258    0.95860876558965
H         3.91468017594440    2.55004986017979    0.97528748994971
H         3.46654742495050    2.25999230133816    2.64402189904163
H         1.75102540593348    1.19970439229537    1.17293991358131
H         2.43080651641150    0.28034464868483    3.34386089802523
H         1.67741059544905   -2.17189731578821    2.07658930347014
H         0.75796545565413   -0.94650775530946    1.72356624178889
H         6.36018624153604    2.00147669795880    3.23397984489912
