36
 energy: -51.091202909410 gnorm: 0.135121765147 xtb: 6.4.1 (79825abcba525fcdf90b791dcacef51065a7a4e7)
C         2.00172230868106    0.51585101641961   -1.17708358295653
C         3.05786853999838    0.13196187505042   -0.12254891623044
C         3.26024378593825   -1.39298741136002   -0.06588450757593
C         4.27056690670073   -1.81987429944017    0.99581934432186
C         4.02648230234228   -1.21071131282586    2.37842847192322
C         5.04049714790276   -0.16412070865805    2.86890284297106
C         5.08815914638694    1.02206957872706    1.88503651981232
C         3.70102862921934    1.68347422122927    1.75302418293421
C         2.71289914225348    0.58527725001287    1.31754603405649
C         2.67424131837558   -0.50007632163733    2.39709026845530
N         1.60539274630112   -1.47086957155405    2.18398155769145
N         6.07274005299260    2.07299013970992    2.14512605837810
C         7.28198615947218    2.10666030051207    1.53315319088488
N         7.77115352505872    1.14517740444644    0.74017564558351
S         9.32668661268777    1.60220444863452    0.33905874890982
N         9.25594619309557    3.04593792096868    1.17500115510731
N         8.12250539809484    3.17868405001651    1.83963021838225
H         1.01022740733719    0.21243509402783   -0.82321996192694
H         2.27084587332100    0.00399084472416   -2.10807907213288
H         1.99753964524761    1.58638781231261   -1.39899106406053
H         4.04738137053482    0.41871128303308   -0.50526989798093
H         3.66423699948671   -1.80681974461165   -0.99963692887813
H         2.32183097633932   -1.84313645988036    0.28815532282796
H         5.24231305441631   -1.38716664038605    0.72233056338413
H         4.37834995429452   -2.90891834266530    1.10173664999885
H         4.06930838609921   -1.92165420737164    3.21948906305905
H         6.04275293214860   -0.58978426480560    3.00968521023671
H         4.75251390399106    0.19199825134105    3.86948158012168
H         5.37442152174043    0.54350160779908    0.94067734016483
H         3.76427931059449    2.44561344306753    0.96365506271661
H         3.41523781049126    1.95522480267358    2.78172276461464
H         1.72583778125947    1.06546227879032    1.38431501974335
H         2.60852985717350    0.02503428130587    3.35874428420794
H         0.81652600178086   -0.84725104407208    2.00662458730244
H         1.39861970246108   -1.92756864318813    3.07283778005556
H         5.75377858340225    2.79631439218409    2.78691191931823
