36
 energy: -51.088229128363 gnorm: 0.126632173597 xtb: 6.4.1 (79825abcba525fcdf90b791dcacef51065a7a4e7)
C         1.98412387218114    0.32280075972158   -1.12443929076176
C         3.21109347593870   -0.10856122694156   -0.29780062781300
C         3.10708082956752   -1.62128605512231   -0.03231654502762
C         3.71814111369753   -2.14078474411102    1.26650085986659
C         3.67135969269961   -1.30654919270088    2.54873613202776
C         5.04013401771145   -0.72363503677361    2.93707999485064
C         5.54722356673729    0.28524870169369    1.88716298047453
C         4.54994310392346    1.33885256701900    1.36336442192988
C         3.20129490408211    0.66805525547358    1.04202880018066
C         2.75807940072489   -0.11090393860818    2.28367489715617
N         1.39255829296597   -0.61967035387535    2.20120730552319
N         6.61855469791028    1.05744323030968    2.51759565911084
C         7.41964444829662    1.86469312267480    1.77967735140220
N         7.57393398051684    1.71327563340565    0.45838444938326
S         8.72048989413839    2.82244343966250   -0.03619414100933
N         9.04671619236478    3.33300393572957    1.51978613953673
N         8.25232878559649    2.78410716317988    2.42073138903847
H         1.08778228177104    0.32910740828427   -0.49445929623082
H         1.76552554812972   -0.47588427304570   -1.84242112245419
H         2.21806629163774    1.27168990068974   -1.61453090492252
H         4.15503938852485    0.12412001516673   -0.81030596617517
H         3.62039752527639   -2.15966109425513   -0.84041280325083
H         2.01543063655808   -1.74389572460211    0.01085363632970
H         4.79264317088103   -2.23491802852755    1.05936120669626
H         3.32305560733491   -3.16028441493867    1.38217462798576
H         3.29194348293372   -1.97893045210114    3.33524965229237
H         5.77741024893372   -1.53608377370684    2.89376040736308
H         5.10282610646214   -0.31812445117406    3.95813028719041
H         6.04409016499165   -0.17055742917684    1.02220515536549
H         5.06568208932889    1.93219085922334    0.59529972872585
H         4.25060070097383    2.00704414901871    2.18656528021237
H         2.40722325359056    1.42741323298810    0.99564434194396
H         2.84289549026710    0.61360129915977    3.10387971016990
H         0.78811658507985    0.09915172019300    1.80044386180838
H         1.04093063723621   -0.66517457751478    3.15811997978372
H         6.44672938187718    1.30802308728770    3.48945433385269
