36
 energy: -51.093749488680 gnorm: 0.128265387602 xtb: 6.4.1 (79825abcba525fcdf90b791dcacef51065a7a4e7)
C         1.59523691043913    0.38306442325228   -0.94677233691330
C         2.92447586360219    0.09551127519494   -0.22199925510142
C         3.29524636035584   -1.39698523647106   -0.15402707595380
C         4.40943222121273   -1.68845218682431    0.84788963005861
C         4.23339737029165   -1.10422020232697    2.25143850542126
C         5.24065873657048   -0.02725474060651    2.68699898293113
C         5.12047814561716    1.19251058593545    1.75156267797176
C         3.67976073826510    1.74185158243100    1.71191231754332
C         2.71930835402812    0.64726395186537    1.21042782173385
C         2.84611186711722   -0.46443492171075    2.25586979033554
N         1.75784250667646   -1.43524040503313    2.19672118203168
N         5.97185395548574    2.33854909202518    2.07286483053413
C         7.23535487420262    2.14315908426042    1.62196711336867
N         7.62200003203986    1.18217131591711    0.77370097260127
S         9.24126369285132    1.43863486167907    0.45485413783877
N         9.37852588059521    2.71410510714431    1.52373438925821
N         8.23244428351988    2.98285514894513    2.12232585161502
H         0.71157721642874   -0.16262478329445   -0.59790038576287
H         1.60639966418969    0.10428579485145   -2.00664911210277
H         1.32631543455310    1.43728699648939   -0.83904376330099
H         3.69131151278729    0.60487537889991   -0.82228873267298
H         3.61503256909704   -1.78323089816293   -1.13122323694951
H         2.43148892553710   -2.02573705609550    0.10518552333606
H         5.32081591293242   -1.22779724041437    0.44353909208460
H         4.57034079660265   -2.77601712049798    0.83510319400623
H         4.18319847807908   -1.88604517221555    3.02660720772936
H         6.24753734698575   -0.46510668868639    2.68437448624685
H         4.99612327335855    0.34250468526698    3.69416987587062
H         5.45813894342365    0.88639488886969    0.75403271286058
H         3.45407472199218    2.62393537101568    1.09631958781908
H         3.35556635753396    2.07789291035623    2.70976988429382
H         1.69748994712160    1.05308034899954    1.23336316965508
H         2.75892682987788   -0.02902898659128    3.25969147955579
H         0.97909274062745   -0.97439649012466    2.66983636712844
H         2.01138907743247   -2.25360922070527    2.75114080904247
H         5.90021016426041    2.74543110460481    3.00353000185043
