36
 energy: -51.093576567070 gnorm: 0.118286763740 xtb: 6.4.1 (79825abcba525fcdf90b791dcacef51065a7a4e7)
C         2.64397842412089   -0.03462099577471   -1.48331402912552
C         3.32140012432298   -0.44875756246271   -0.16253779359464
C         2.91942134020909   -1.87396743154672    0.25797002831627
C         3.60668805259039   -2.25699682389488    1.56608059780927
C         3.59849431545266   -1.14915461264299    2.62196096623573
C         4.96241494180328   -0.51620100317203    2.94326046551395
C         5.42348682193010    0.53500181536204    1.91384443817654
C         4.33241773734615    1.39309755389083    1.24134584544045
C         3.05162308032080    0.58621543466069    0.95747267406534
C         2.65819876249165    0.01737086304006    2.32368485773817
N         1.29053503152363   -0.34332819740689    2.68380183784666
N         6.47497821990088    1.36368011431092    2.50472366322196
C         7.43091898008691    1.96355667261684    1.75356059367286
N         7.38282947842721    1.90217392128054    0.41697277665277
S         8.73976766019810    2.69113765938896   -0.15373437590913
N         9.26523991512634    3.21723943607771    1.34134625043257
N         8.40606831820617    2.82299901395233    2.26353929223356
H         1.57311556896374    0.12113280409760   -1.31203551491428
H         2.78228923670886   -0.78843761078792   -2.26677530027409
H         3.09152379277241    0.91230643157714   -1.79690780109735
H         4.41350695538917   -0.46715240265906   -0.28419522688767
H         3.33412546080087   -2.55601302101027   -0.49648051164501
H         1.82994040085985   -1.88370833605829    0.40471256555761
H         4.63659754355243   -2.57935894568115    1.36189511225586
H         2.97449941447767   -3.10492232568024    1.86643450418650
H         3.35706687071550   -1.55023641983113    3.61970991999394
H         5.83336645585112   -1.17060186830637    3.08011355733443
H         4.77644086063678    0.01523112645887    3.88872670646986
H         5.96626620607521    0.02539923832287    1.10855972820233
H         4.74642164093086    1.80104691354382    0.30853368118310
H         4.10643634736350    2.27085047327609    1.86762673910685
H         2.34728987783971    1.34445752015981    0.58557271992948
H         2.91077329891416    0.76284222977054    3.08874442878380
H         0.83423549488139   -0.90544287175777    1.96374341909607
H         0.71774435486503    0.50118877967402    2.67398171137726
H         6.65378877228982    1.29837462729022    3.50501634584515
