36
 energy: -51.088777707917 gnorm: 0.125226915284 xtb: 6.4.1 (79825abcba525fcdf90b791dcacef51065a7a4e7)
C         2.58963049259518    0.57533744344628   -1.31388429399912
C         3.26714963150421   -0.05419245548277   -0.08119658155645
C         3.01414248868486   -1.56932644217391    0.01876983496680
C         3.90868239967929   -2.00255665068722    1.17735095563606
C         3.69245186607665   -1.27448370758781    2.50604165095687
C         4.95167673100595   -0.58781340654864    3.06009915837431
C         5.49812461435016    0.43681852552647    2.04578357446882
C         4.35769245349425    1.41614577556229    1.70031719385312
C         3.06620656576387    0.70627562494829    1.25285076545169
C         2.58678393223190   -0.22958793418996    2.36605148956478
N         1.33571663267233   -0.91744425094005    2.06277536279053
N         6.58965117720928    1.21981873756315    2.62626661215557
C         7.47497710748053    1.84777647857153    1.81399347422869
N         7.47347015905188    1.54456598317285    0.50991964250880
S         8.59911697007287    2.52014864570620   -0.24546727011122
N         9.00925785423207    3.29660922541490    1.17476639794791
N         8.33510994009996    2.86753736569967    2.22617653831575
H         1.50720263820178    0.71967763494347   -1.22523518021049
H         2.71947687242956   -0.12150952119244   -2.14978210427291
H         3.08464268137344    1.54322921039524   -1.42989255242895
H         4.35794216417894   -0.01388500762350   -0.20919335682046
H         3.30622752096424   -1.88977021889485   -0.99037010265481
H         1.93858761458390   -1.76795382360504    0.12979160020220
H         4.93941333499528   -1.92599241893860    0.80579442845057
H         3.71929794585143   -3.06053414299313    1.40901826389801
H         3.31482957118117   -1.98355118216497    3.26054910358915
H         5.70828831146721   -1.35223603526840    3.28083146574604
H         4.65125158860443   -0.08189417766719    3.98999341819257
H         5.67332990262438   -0.11312070618899    1.11322921724859
H         4.72032563446085    2.10356928354560    0.92320295923166
H         4.26150169467768    2.05979476106791    2.58925411043444
H         2.32537744769890    1.48612695786388    1.02409328804697
H         2.39297410320836    0.31658192044475    3.29823913511196
H         0.61893884181147   -0.19020306427510    2.06679455715861
H         1.22478454184574   -1.67674140569785    2.73549849801312
H         6.43954842608648    1.54915188124860    3.57801884601241
