36
 energy: -51.092302972713 gnorm: 0.126336127195 xtb: 6.4.1 (79825abcba525fcdf90b791dcacef51065a7a4e7)
C         1.73086984635066   -0.37368711660199   -0.89335632119054
C         3.04724905661541   -0.19201948224682   -0.11297068554441
C         3.79596492111886   -1.52551440096205    0.06267885987745
C         3.62193341374948   -2.13928293353840    1.44947427136723
C         3.58471138041373   -1.06281701145287    2.53671871214347
C         4.92190049819895   -0.39936458094128    2.90536384058184
C         5.41847374630656    0.61829402273676    1.85889455156178
C         4.22938843763519    1.51251441482061    1.45212629031882
C         2.94354503882884    0.72940817334242    1.12742792737632
C         2.48906032791745   -0.00833743635269    2.38999579109924
N         1.10903293612435   -0.48289110572935    2.41480151969621
N         6.58048788557888    1.35443675451534    2.35819120324923
C         7.59840843269295    1.89321941403642    1.64301877984444
N         7.65940262215936    1.77710574667524    0.31059813685658
S         9.01026195164215    2.61718496479153   -0.19822171837582
N         9.44497066660642    3.07113093788860    1.34875327752077
N         8.58745080034072    2.65832921804267    2.26433821556526
H         1.30199060933631    0.62953368945736   -0.99312325218279
H         1.03730390769213   -1.11924276530746   -0.48802437135338
H         2.07555241139913   -0.79744649748362   -1.84042093176441
H         3.58625334602317    0.45072723750136   -0.82303212837979
H         4.85231768534048   -1.53076356157460   -0.23807449369260
H         3.25249009492359   -2.23977610787757   -0.57219301612824
H         4.44365927878552   -2.84543676344757    1.62957416959847
H         2.68039211416983   -2.70691047639327    1.46178462286995
H         3.36218525640322   -1.64807723703101    3.44369687502691
H         5.71092434169817   -1.12942890430936    3.12891081581087
H         4.71440319693355    0.17464560302013    3.82098934069534
H         5.78865326278336    0.04774404995828    0.99852977315481
H         4.63085666058654    2.17148045675913    0.66947217573607
H         4.06704672719647    2.12294466349849    2.35476997156127
H         2.20454507835811    1.51994750166045    0.93184542517738
H         2.73726683170889    0.63589571043300    3.24333908293816
H         0.98193576721270   -1.38594521409564    1.95544775320397
H         0.53148556913815    0.14857284840053    1.85884574030748
H         6.49509652064624    1.67572221411577    3.32063987720939
