36
 energy: -51.087630556840 gnorm: 0.133273303655 xtb: 6.4.1 (79825abcba525fcdf90b791dcacef51065a7a4e7)
C         1.78128611788491   -0.62324525963049   -0.79376146347840
C         3.03046976304273   -0.02019114840000   -0.12240088805453
C         4.07614049949253   -1.14447513208106   -0.01196943588545
C         3.89440881500862   -1.87734201221448    1.31471062498407
C         3.73845565560067   -1.00674780074690    2.56371387629793
C         5.06526716091160   -0.25289680318370    2.75192368517171
C         5.23192847423132    0.99758953810733    1.86545889058514
C         3.89488146574402    1.70168311851969    1.55631185262911
C         2.74656073554028    0.74050325301444    1.19635299068681
C         2.50032693850292   -0.12060563065515    2.43843305485614
N         1.26911213162505   -0.88940246565855    2.28561420552696
N         6.17488853055079    2.04847211811131    2.25010450936481
C         7.41806161440944    2.03164113715721    1.70958807745625
N         7.64187934955600    1.40921543581018    0.54552650958888
S         9.16466818431032    1.82418459035258   -0.00070277795705
N         9.41788890124797    2.93067501395738    1.22393123386955
N         8.39007932139256    2.97372983841305    2.05205870497627
H         1.02997205292189    0.16032453259671   -0.94170866315863
H         1.33242848053555   -1.42052635291949   -0.19039540647390
H         2.06487684235364   -1.08617528440485   -1.74275121194289
H         3.44367274512448    0.69184209666986   -0.85048614970767
H         5.10740870388992   -0.77435089765090   -0.08848888276284
H         3.85933310898140   -1.79549995321078   -0.87089794789455
H         4.80808681673615   -2.46188505128018    1.48740844714010
H         3.20033168765567   -2.73001588630487    1.30717556254023
H         3.64493507848775   -1.64858639224243    3.45475477480675
H         5.92025072120390   -0.93948368918960    2.69600122851095
H         4.99870751456234    0.02280159827933    3.81516074872212
H         5.58890978553878    0.72823068085945    0.86406094972262
H         4.04064683107406    2.39866257599429    0.71909472407969
H         3.54298193715515    2.32037912729458    2.39722057644802
H         1.93054581215406    1.45738726235440    1.02453092592251
H         2.49392877166525    0.53544487848833    3.31842984342679
H         1.45404729551233   -1.59891243152276    1.57493784777789
H         0.44332107589757   -0.29573094788997    2.20184209100871
H         6.03044151526381    2.51175779859635    3.14527204368766
