36
 energy: -51.086788555348 gnorm: 0.127880229337 xtb: 6.4.1 (79825abcba525fcdf90b791dcacef51065a7a4e7)
C         1.05405019605766   -0.39545107873247   -0.07668932048107
C         2.59149903676035   -0.44429528634386   -0.17009370960958
C         3.09986306805471   -1.87993954489331    0.05380014595552
C         3.22088226221626   -2.18025854685688    1.54556525064431
C         3.99647962459403   -1.09285306803949    2.29273516213159
C         5.42024425651243   -1.12538109284758    1.71309798643927
C         5.87748660682782    0.16720309381075    1.00778421357810
C         4.74184791270366    0.79318756671330    0.17262999947182
C         3.29557661949250    0.64192200881105    0.68007032099525
C         3.24500773693110    0.23001043591839    2.15406968752537
N         1.88131424380135    0.29157350296775    2.67063732299160
N         6.29569784326274    1.12904759073845    2.02829127596487
C         7.32085860312759    1.99390021566664    1.83081731879759
N         7.68715655562353    2.33791076968920    0.58983786516694
S         8.99477388602183    3.36191109363252    0.76593989525883
N         8.96314438840519    3.35288709716281    2.43539741024612
N         7.94808683507020    2.64426962206376    2.89535479879628
H         0.73297063860848    0.63303382695153    0.12198009476383
H         0.64052312261609   -1.02977970552414    0.71565118305190
H         0.67214723252817   -0.60319409193076   -1.07983558151346
H         2.80472594389202   -0.09883333810141   -1.19138041664898
H         4.11336692053313   -1.96501264421482   -0.36084886294897
H         2.39150798407840   -2.59919195660460   -0.38152272463019
H         3.72473057340467   -3.14941266679348    1.66045549449610
H         2.29843198699600   -2.37910664596430    2.10983247948877
H         4.05697999347024   -1.37398225363922    3.35667259147061
H         5.49372236567356   -1.86451287706998    0.90451220721466
H         6.10543793125649   -1.47003149340239    2.50217249627793
H         6.76273149057368    0.02201422000594    0.37687267192931
H         4.91010008084342    0.48588809316470   -0.86910828912641
H         5.03432801454911    1.85535144716051    0.16966323090973
H         2.73317479721084    1.58457975309751    0.61353895136334
H         3.85968911059669    0.86721815300386    2.80289223455870
H         1.41880577291483   -0.53846873186394    2.29676288285736
H         1.37208685782723    1.09036105820825    2.29113710098225
H         6.12670939926114    0.95296419944476    3.01685641349994
