36
 energy: -51.095278226561 gnorm: 0.114274328715 xtb: 6.4.1 (79825abcba525fcdf90b791dcacef51065a7a4e7)
C         2.00447368619395    0.53867212399112   -1.09093161162142
C         3.13174268201975    0.14049494924984   -0.11852291540030
C         3.35442729496350   -1.38264612826552   -0.12799724692166
C         4.24199345693998   -1.87106461038222    1.01387577749085
C         3.99643009146811   -1.24480098281797    2.38856023672470
C         5.09734069280150   -0.25688059996283    2.80826522183279
C         5.13862359126671    1.00956028643069    1.92978062206008
C         3.74672657990547    1.64642266806520    1.73992959630218
C         2.72501341960300    0.57689581671794    1.31063690827827
C         2.66242822935847   -0.50030757464018    2.39719961747463
N         1.53480804866254   -1.40185449512748    2.18277477175635
N         6.13448499890418    1.98484047445845    2.37539114945724
C         7.29853030948776    2.06933869006402    1.68562368487904
N         7.60396536846686    1.36400786141984    0.58937312964164
S         9.16216918343774    1.75102730683599    0.12929869982510
N         9.35554383566656    2.94119116761988    1.28441188788612
N         8.28443711479161    2.98625538088840    2.05560639035662
H         1.17539017217391   -0.17600678426091   -1.04405501403952
H         2.42131879611912    0.74755996435916   -2.08279196431199
H         1.63223279584811    1.52417175152829   -0.79846508800528
H         4.00496057860586    0.75379758569465   -0.38155639647288
H         3.72332816166158   -1.73896747150911   -1.09923797869390
H         2.36331069662866   -1.84679632402264   -0.02383650224314
H         5.29177969125193   -1.71818959017656    0.72944529006751
H         3.95460139227079   -2.91815554553910    1.18667328163464
H         4.02518029558433   -2.08019010818289    3.10686047259197
H         6.11632073560182   -0.65454022416636    2.71301662917037
H         4.84119384906162    0.05282667978039    3.83265922419424
H         5.56972132338150    0.68761787792423    0.97411565062712
H         3.82640823173241    2.44149316715069    0.98529446592347
H         3.50166184911459    2.22912097749674    2.64223303000153
H         1.69886759286085    0.95996639992948    1.21261871900001
H         2.51549454551375   -0.01274171182544    3.36958206199830
H         0.58858358439632   -1.01811967396389    2.17422205197289
H         1.53071959061925   -2.13513939936605    2.89247263124609
H         6.04600201221129    2.75915654285712    3.03069936556224
