36
 energy: -51.089271569223 gnorm: 0.139274219548 xtb: 6.4.1 (79825abcba525fcdf90b791dcacef51065a7a4e7)
C         1.89405657675122    0.30573746705749   -1.03906102797831
C         3.06040572842501   -0.06033142345153   -0.10072083303479
C         3.20041305579145   -1.57439812481285    0.13935598983514
C         3.99234485531770   -2.02464188098652    1.36423348190067
C         3.73355625099339   -1.18967318918890    2.62046617864500
C         4.93345233608532   -0.26742947952542    2.89223638506997
C         5.28528786334719    0.73714313976686    1.77672858502191
C         4.02190238223575    1.61440293731571    1.66146018169473
C         2.85446765333054    0.70818147227729    1.22794376469817
C         2.55421560386487   -0.24719047928007    2.38639777638475
N         1.44232393893773   -1.10730814805797    1.99373168824250
N         6.45595250289072    1.41809717590994    2.33109855691136
C         7.49759876794767    1.86264692851944    1.58593469302637
N         7.81540583919353    1.55173446582389    0.32304928464932
S         9.14624929548787    2.45212273479306   -0.13259128050296
N         9.43573486608564    3.06005105272825    1.39541117890625
N         8.43183632758116    2.71329944375292    2.18026301366648
H         1.77264212979298    1.38382436402125   -1.19180263085041
H         1.03297379665862   -0.21601815589116   -0.60606166765820
H         2.12903319201130   -0.23997910788520   -1.95682399853200
H         3.99818206113778    0.22236007262182   -0.59921584860473
H         3.63937290961359   -1.99014785369190   -0.77761059014863
H         2.16943069107871   -1.95550711478183    0.16005054326127
H         5.05525423647459   -1.85517968796657    1.14553547342225
H         3.79992816563626   -3.09861356933397    1.49992880073664
H         3.50254214303460   -1.80021380324770    3.50845797511708
H         5.74925794681308   -0.95639208665329    3.14780934434074
H         4.66376655618481    0.27733740674473    3.80952123940746
H         5.56446835741684    0.29192431024025    0.81411435707209
H         4.19211034982989    2.38993122721961    0.90149599372177
H         3.91857879026228    2.08769173114126    2.65093857331755
H         2.03566206377621    1.42210787281440    1.05708595615545
H         2.20777071063587    0.33812754963296    3.24791755260279
H         0.54441862968806   -0.62308601172749    1.94944536749609
H         1.27575106591193   -1.84331158446504    2.68071563064464
H         6.47546024418694    1.82329513062923    3.26504585574800
