36
 energy: -51.097720953372 gnorm: 0.117862553837 xtb: 6.4.1 (79825abcba525fcdf90b791dcacef51065a7a4e7)
C         1.82582197816345    0.41880947034933   -1.16083542995829
C         2.92167008927612   -0.09272929391789   -0.20568931396003
C         2.97975938931311   -1.62105952986051   -0.03113493124213
C         4.02331657549659   -1.96176857066017    1.02957522621898
C         3.83427393497045   -1.25120362272142    2.37182154020243
C         5.10966351648171   -0.50790274578787    2.80197071873942
C         5.41654944623071    0.62417370444102    1.80120305365348
C         4.14823934502567    1.41661312939951    1.42378599904234
C         2.85810905871953    0.61438810655111    1.17065262771145
C         2.62797118144375   -0.31380677056676    2.36664315898249
N         1.37424078557027   -1.06088694222601    2.34865930782607
N         6.31598376079233    1.61479946396183    2.39378947299156
C         7.46710087935584    1.95778358803885    1.76513069147163
N         7.83976722159388    1.51926872503509    0.55625851101174
S         9.22952411493215    2.34306473827188    0.13271681250323
N         9.27846466403011    3.25059704291210    1.53348809578875
N         8.24042409814110    2.98683613298261    2.30610916818728
H         0.80090213115639    0.32997842402097   -0.78401826709285
H         1.86015681450156   -0.18190018535810   -2.07688671461631
H         2.07025377566561    1.46002623678868   -1.38761770309781
H         3.84725716309186    0.21786020054988   -0.71032675934142
H         3.28212948311995   -2.03082955824229   -1.00428556207728
H         1.97312013053302   -1.92222431981258    0.29224431377693
H         4.98238776637275   -1.66274701503666    0.58562572196687
H         4.06905918202471   -3.03160827711321    1.27898093514056
H         3.60807398046031   -2.02137203317769    3.12702415251611
H         5.92207070562008   -1.23883854132796    2.90805185174092
H         4.92778242230553   -0.17871469576780    3.83612126736157
H         5.96691309197155    0.29200396376729    0.91263633408894
H         4.40964866765087    2.12170488124840    0.62224297540554
H         3.95404506461118    1.97409725282918    2.35397177143209
H         2.17362797190608    1.46700392419317    1.05293354511138
H         2.59018389311541    0.23344592810967    3.31739243292745
H         0.61991269161228   -0.37561308035274    2.41233943968487
H         1.30964819267640   -1.78654089994600    3.06325614578863
H         6.00126213328509    2.24893610610644    3.12566685168135
