36
 energy: -51.083834725003 gnorm: 0.130521074586 xtb: 6.4.1 (79825abcba525fcdf90b791dcacef51065a7a4e7)
C         1.28732944931181   -0.05161407310650   -0.77889012501954
C         2.61619528633333    0.11769233664711   -0.01710929465825
C         3.42826668766867   -1.18491244438837   -0.13285795216149
C         4.61623412262222   -1.40418045163469    0.80033828556498
C         4.34216878021283   -0.95228973117079    2.23663485000225
C         5.28476106268297    0.21886291201884    2.55922497728838
C         5.00427960091406    1.31642345647495    1.51327899610492
C         3.55633325428500    1.84523491037631    1.56642240999626
C         2.57527391302577    0.66574478715957    1.43076367842246
C         2.89804576593993   -0.47957096610225    2.39459598684448
N         1.98867293384586   -1.60791826844671    2.22091366699723
N         5.94812776218205    2.43179494637036    1.59437912911955
C         7.26828898900478    2.22050795545335    1.36976227964789
N         7.66762962367217    1.05769170127325    0.83973129265545
S         9.33431530044209    1.16499577342188    0.84954754882150
N         9.43659907401743    2.63943651488386    1.62654997975257
N         8.22529114878966    3.10724515346914    1.86723554056350
H         1.05983729283839   -1.09807401999577   -1.01021613924865
H         1.35667556453900    0.41213427026206   -1.76950080584350
H         0.46904527982841    0.30155887805021   -0.14565293025845
H         3.16959773664229    0.84256844715242   -0.63040904248226
H         3.68651300710424   -1.24271681908893   -1.19884519412135
H         2.75961183553671   -2.04453615111956    0.01729112075192
H         5.51806527877191   -0.92803664070346    0.39252675535339
H         4.78768575821986   -2.47106490433685    0.59732474498392
H         4.55073657629929   -1.78738350135868    2.92494775891896
H         6.35812301499638   -0.01218475415548    2.56529836026451
H         4.95747148652227    0.51101108911076    3.56840476851941
H         5.27267763352351    0.98700307421610    0.50222389554500
H         3.28781657114380    2.55236728312048    0.76903728546098
H         3.38618207825660    2.28218758583122    2.56335092741597
H         1.59026863759442    1.03006633659665    1.75689295486771
H         2.68495622478467   -0.00632821252617    3.36179386589293
H         1.01206029084712   -1.31044522791977    2.24100932373106
H         2.14602898443349   -2.35507795714788    2.89795575497625
H         5.72044618866757    2.99073871501733    2.41448061837297
