36
 energy: -51.096147317840 gnorm: 0.118628848321 xtb: 6.4.1 (79825abcba525fcdf90b791dcacef51065a7a4e7)
C         2.15886911111342    0.34781632101616   -1.17921220174013
C         3.13376737764547   -0.07545448013611   -0.06329361457981
C         3.02790481974643   -1.60826340678157    0.03118822528062
C         3.98329776810202   -2.05221212410543    1.13587557047230
C         3.76341495309803   -1.29447914062807    2.44727066251167
C         5.01735197448530   -0.49872525111304    2.84546755998637
C         5.37096410358764    0.66027180797408    1.89205460933012
C         4.12632622150683    1.51696042006232    1.58225538275557
C         2.86528026683190    0.69673049752887    1.25200756564038
C         2.59230557167234   -0.31674238292080    2.36702328823426
N         1.33914086260704   -1.01180191292213    2.08996269777531
N         6.31817711560151    1.65328079167162    2.40018924044827
C         7.43685264975491    2.00309153424536    1.71892711459583
N         7.72530985505742    1.54977030966496    0.49261567445616
S         9.09543508572658    2.35967286852675   -0.01361190554216
N         9.23686438737530    3.30321420377501    1.35675218911814
N         8.30084480505705    2.97445962908221    2.22843396980010
H         1.16701201148688   -0.00368499741670   -0.87423819918562
H         2.22803099066813   -0.11118543991628   -2.17204398074418
H         2.26050800463245    1.43346016740942   -1.25893943386280
H         4.15543690070985    0.20382976977469   -0.35659875872067
H         3.32605510196273   -2.09172227089040   -0.90888370205994
H         2.02191176418373   -1.99130360804901    0.25447085810479
H         5.02330772142202   -1.88471121304077    0.82499723515814
H         3.89182048344051   -3.12683178903300    1.34959750927180
H         3.68352833083093   -2.00636359286556    3.28482390148945
H         5.85249443022861   -1.21070487116109    2.81158700252485
H         4.89226588597233   -0.18196947366600    3.89185759481124
H         5.86806320244429    0.18919792430638    1.03545109922922
H         4.33493294519352    2.27395311990132    0.81322630858427
H         3.86263337944523    1.98540587812385    2.54390525433248
H         1.97163700261080    1.33012456770033    1.15433701555152
H         2.54349713912886    0.18154376131200    3.34383761344292
H         0.70889051430035   -0.21327212884409    2.00163951606829
H         1.00161003392975   -1.59946913945613    2.85292710180258
H         6.30751469069245    1.76354638056140    3.41239045099006
