36
 energy: -51.084943581607 gnorm: 0.115513314869 xtb: 6.4.1 (79825abcba525fcdf90b791dcacef51065a7a4e7)
C         0.83964279248932   -0.62431362793064    0.14180568441944
C         2.35733507390954   -0.54513385076852   -0.11353691078015
C         3.02171966507973   -1.93368904058729   -0.12556033098501
C         3.35649292157507   -2.25867737095430    1.32788721962284
C         4.12054808558018   -1.19219514767474    2.11598636155534
C         5.46464990969011   -0.80879152918135    1.47525624337198
C         5.63313464729660    0.56576100629943    0.79736964618712
C         4.34868557189153    1.02414283112473    0.07688987289600
C         3.04729586137446    0.54312996906341    0.74553713148986
C         3.31076180289781    0.10124593734931    2.18783627148927
N         2.02101348960855    0.19175072719133    2.86507354579255
N         6.10522016351328    1.59250804397305    1.72710398185643
C         7.32508028389289    2.18395151094652    1.71958749138202
N         8.45679933126153    1.63739807727976    1.25802625446713
S         9.70959275074667    2.73058173454188    1.41585463847627
N         8.73443401253940    3.92158499024043    2.06296122175602
N         7.48772001819323    3.49775830389528    2.16354208668201
H         0.38247920667204    0.35704939921299    0.30994520656000
H         0.49664304426051   -1.27691212768903    0.95276025076529
H         0.41812979333728   -0.97053957824500   -0.80569832626360
H         2.23663627162720   -0.17000577015364   -1.13947402626708
H         3.86598284704127   -1.99669278448803   -0.82528279359941
H         2.32330476580871   -2.66230203103535   -0.56137763359836
H         4.01951128419060   -3.13335153641327    1.28696808635743
H         2.42608649556712   -2.52157044672407    1.85141727713931
H         4.33847912485932   -1.52063609287457    3.14520422869300
H         5.68588579284963   -1.60176545962567    0.74877648514451
H         6.28222862474894   -0.91245183693856    2.20445612574917
H         6.41186259141369    0.43881335306072    0.03562507388068
H         4.43204042559324    0.71561216615389   -0.97469048763977
H         4.40233861885910    2.12451184071261    0.06947774392265
H         2.28597167964761    1.33546884460761    0.78924649755236
H         3.98760193383853    0.75393104012132    2.75416409702252
H         1.94840624577414   -0.09257884216923    3.84310789465311
H         1.24517883720388   -0.28458553232952    2.40401077259784
H         5.34710405609490    2.05525060556218    2.22505254448981
