36
 energy: -51.083369212511 gnorm: 0.119448325949 xtb: 6.4.1 (79825abcba525fcdf90b791dcacef51065a7a4e7)
C         1.85555803242142    0.89257381335742   -0.75480251983771
C         3.07361350121831    0.47910713497556    0.09387011004119
C         3.59123116967111   -0.90931758958555   -0.32324566992591
C         4.61294712124786   -1.51156651927094    0.63779177167018
C         4.34482097856540   -1.21852681524713    2.11579747509116
C         5.29946057820952   -0.16067820497410    2.69351937141262
C         5.04882720838524    1.21630522631065    2.04667200910824
C         3.58493766140485    1.61177174640646    2.32889177784260
C         2.74407590820748    0.54310552832546    1.60571708166917
C         2.89233950134251   -0.79705562082948    2.33158789775119
N         1.90750445297473   -1.85122939488325    2.10998099487866
N         6.03544132124049    2.19582478763159    2.50341499842990
C         7.16383649094291    2.10488563758283    1.75750949592285
N         7.40091416778354    0.98502603244450    1.06306288876774
S         8.82636281667917    1.20135799536378    0.22000399584480
N         9.07388212380361    2.75373320219427    0.78306319116839
N         8.11933137981517    3.11394001773705    1.62158884816543
H         2.09505953356526    1.60756879145638   -1.54963836764147
H         1.09047348304743    1.29691326810396   -0.08224311218925
H         1.58954808211611   -0.02842883764497   -1.28044714746018
H         3.84961314801426    1.22673094258747   -0.12227653670246
H         3.99603454123455   -0.90028757314770   -1.34423242902457
H         2.68913783445421   -1.53253994658980   -0.40336089273863
H         5.63737339413176   -1.13203806609075    0.52451537676696
H         4.64898531381768   -2.58538310528235    0.40439993239409
H         4.49201696097197   -2.14416315151990    2.69561422615134
H         6.34528395141273   -0.48088723375041    2.59736628736824
H         4.93012137819117   -0.01858710169680    3.72031610881168
H         5.17627482580980    1.15953759830151    0.95886585320957
H         3.33126887878163    2.54428003648527    1.80540265329646
H         3.19415470229359    1.65142644886498    3.35819333090400
H         1.70045939003109    0.87236399984737    1.71424941408427
H         2.75423010279985   -0.55387453049449    3.39301443564091
H         2.21248228071962   -2.48720837888154    1.37161419030635
H         0.95280801314768   -1.58114613207966    1.87122540484478
H         5.70691223450463    3.14113741463167    2.69123448070675
