36
 energy: -51.086904135297 gnorm: 0.125788750989 xtb: 6.4.1 (79825abcba525fcdf90b791dcacef51065a7a4e7)
C         0.87581460510311   -0.83154764525145    0.05960018872071
C         2.35354639928539   -0.47151287475593   -0.18847801319120
C         3.20680271356708   -1.74928575091297   -0.09420686997486
C         3.48521773307082   -2.13376616930728    1.35660675395288
C         4.05788349270382   -1.01077159265567    2.22447883216384
C         5.48802244374376   -0.73923761926593    1.72938795981657
C         5.60021663211572    0.48551720011042    0.79949543931064
C         4.34313909000229    1.01607825653874    0.08027683021788
C         2.97340794517022    0.64965674800383    0.68164985164828
C         3.14549809604725    0.21157159457300    2.13882825564628
N         1.84239654558200   -0.02982569946043    2.75033933845987
N         6.06235234306098    1.54299374603347    1.69930325811312
C         7.28943220317092    2.11634770101616    1.64047394222585
N         8.19905523366521    1.99523638582161    0.66555576327714
S         9.56516371598952    2.85458104545175    1.09535343618705
N         8.92876978087530    3.32069924171834    2.56705545767841
N         7.70718733948454    2.85356577545205    2.75026033965874
H         0.32300706755567    0.10815655356067    0.16777905734313
H         0.88085256044753   -1.31412389203148    1.04361020550555
H         0.48191518953161   -1.53991335472114   -0.67413731593663
H         2.47535750443842   -0.03316272681691   -1.18890163255454
H         4.13236663774465   -1.40645917703090   -0.57603947930217
H         2.78605159849879   -2.64624231298727   -0.57068812528975
H         4.14307430747664   -3.01324146306196    1.34820806606047
H         2.58510580459039   -2.53591963947060    1.84335483127836
H         4.13086861772081   -1.32808165831078    3.27740061212970
H         5.80822645269534   -1.66323853980764    1.23017108525672
H         6.28136638653773   -0.65286810829798    2.48705448433809
H         6.41494647164956    0.26433636270744    0.09943685017087
H         4.51667884786741    0.67905516594875   -0.95135286585349
H         4.32547879426138    2.11673365296830    0.03565241196576
H         2.27126166077787    1.48704371179452    0.55876966422499
H         3.67127634843785    1.04510237944030    2.62217206328860
H         1.36261520370733    0.86978389861863    2.69395906260993
H         2.01169855113990   -0.23970561481041    3.73455565982196
H         5.33970792167412    2.03791940739374    2.21858846558858
