36
 energy: -51.100324833412 gnorm: 0.114999843180 xtb: 6.4.1 (79825abcba525fcdf90b791dcacef51065a7a4e7)
C         1.48642324091215   -0.51763415710452   -0.67081629722809
C         2.89173507814186   -0.08585643051638   -0.20872786955785
C         3.92564834805888   -1.22286522057340   -0.12000779239849
C         3.74139998092848   -2.03961375383408    1.15638346441554
C         3.78060042714340   -1.16803025734106    2.41378965760432
C         5.09089479727725   -0.37865417883077    2.56921528112930
C         5.31572472656152    0.86172748832185    1.68139954392158
C         3.99786423357499    1.58132264864273    1.32863774459444
C         2.75494544915217    0.69577091740539    1.12120424430103
C         2.62521773542594   -0.16916697990049    2.37816711497708
N         1.29767145166240   -0.75066513947661    2.55071519966466
N         6.28132373972159    1.77790315282046    2.28944628306162
C         7.48822037890512    2.02313627331137    1.72271720643615
N         7.82015890021529    1.54005684059418    0.51897364758189
S         9.34511261208325    2.14182379892684    0.19984297933486
N         9.43200331175620    3.14217371013348    1.53397952226261
N         8.35313475362021    2.96953542515169    2.27578813647493
H         1.55460501853421   -0.70983686592640   -1.74726981972931
H         0.79766963405865    0.31779431034433   -0.50093789709414
H         1.14925361739233   -1.42746226737228   -0.16699201568795
H         3.30690291948477    0.65379366672125   -0.90757664143627
H         4.86741249142507   -0.65770951058340   -0.12638071623259
H         3.81358736553441   -1.85640776341833   -1.01144659500734
H         4.49180836634915   -2.84122139749012    1.13118366088462
H         2.77921665935718   -2.57163112451450    1.15272934028090
H         3.58262560585106   -1.81041148428668    3.28717908663944
H         5.89254310567054   -1.07884062216665    2.29972553149880
H         5.17225174884257   -0.08919481649374    3.62775539877724
H         5.84255128626628    0.52319986919545    0.78104376878922
H         4.08897713721699    2.19580604020054    0.42195752112788
H         3.60947912466367    2.22690981062225    2.13245348652699
H         1.83638824786811    1.29614194298629    1.04955815166827
H         2.77502442646893    0.52928958413610    3.21156615155235
H         1.05113572770742   -1.56235620528741    1.98234556892685
H         0.61900471461500   -0.01207240200567    2.36286755182704
H         6.07895873443625    2.22077033919161    3.18372842408115
