36
 energy: -51.090832828162 gnorm: 0.123211502368 xtb: 6.4.1 (79825abcba525fcdf90b791dcacef51065a7a4e7)
C         0.83254498756327   -0.67043331338843   -0.00681811593245
C         2.24354605469415   -0.07763048035061   -0.18715066239236
C         3.41448319024597   -1.03868780429441   -0.46085101754603
C         3.93936241136283   -1.88825739777660    0.69367639463497
C         4.06615340876789   -1.06289192174439    1.97623658590157
C         5.36245765222798   -0.23608281346431    1.98741924932564
C         5.23486938105921    1.06403767409628    1.16844435729748
C         3.83432114378286    1.66912715992527    0.94184855625378
C         2.59852089831279    0.75853269923741    1.06712047098499
C         2.90294066251257   -0.12121283490714    2.28296538785457
N         1.80219874567128   -0.93485917654051    2.78956082557353
N         6.09348413029110    2.09522502418271    1.75232230243585
C         7.44436589342201    2.12630132803255    1.64244370834321
N         8.17147026920363    1.26747337701717    0.91699128864462
S         9.78153250537134    1.68302401594095    1.07341675187400
N         9.45593521807035    3.00247863863074    2.04356939787098
N         8.16847555248289    3.11153876884898    2.31668998694233
H         0.30762596383144    0.03285356250145    0.64907090050579
H         0.84053291472589   -1.71146233845888    0.33578322099661
H         0.37957718190966   -0.76534986757493   -0.99733336624326
H         2.26244103476694    0.65280166687323   -1.00809405051639
H         4.27430606050993   -0.42163771195126   -0.75464532621746
H         3.09538429065767   -1.76923645695359   -1.21786588241631
H         4.84443725667761   -2.43295974263497    0.39290828944570
H         3.21075857574731   -2.68881218457564    0.88629273501666
H         4.12380043964933   -1.66285016041329    2.89894114094307
H         6.15912158996113   -0.86191425361482    1.56411398082602
H         5.55484004336517    0.03329150263514    3.03686641084344
H         5.65352833584384    0.86080331719901    0.17536422254518
H         3.80205992979697    2.16328854035358   -0.03933652073496
H         3.67625591650199    2.42010012010529    1.73229179054261
H         1.81324800685678    1.48252566221152    1.32885796850363
H         3.31991422648983    0.46089888331204    3.11490081290651
H         1.53201985347311   -1.68569729051043    2.15244876257838
H         1.06843400689389   -0.28649082926969    3.07696699155332
H         5.79499558380332    2.85395571340969    2.36228606986815
