36
 energy: -51.093636785488 gnorm: 0.132675233703 xtb: 6.4.1 (79825abcba525fcdf90b791dcacef51065a7a4e7)
C         1.25431746335993    0.20959361307196   -0.82017184791497
C         2.64317844994192   -0.08092865092853   -0.21890564801064
C         2.94266564128956   -1.58660287105556   -0.10537401724972
C         4.21868436464502   -1.73155166214222    0.71983281709957
C         4.17746953782233   -1.09960122099485    2.11310406464613
C         5.25341177964725   -0.02037676978885    2.31747128060605
C         5.09271661876640    1.13457457004248    1.30872132280609
C         3.67295659551675    1.73702692427510    1.29009220187067
C         2.65238738012963    0.58907510420131    1.17729715758880
C         2.88287037050235   -0.33294830323926    2.37798567101480
N         1.80894340730271   -1.29591663776137    2.60084201161492
N         6.03084667615681    2.17470989848181    1.73240833316242
C         7.36600789825696    1.95984744049831    1.63701808197261
N         8.00519180912632    1.41681884051769    0.59341310029478
S         9.62755851044410    1.77124386519011    0.77162888152291
N         9.44529949255106    2.83443554210645    2.04621719303346
N         8.19401465717458    2.73060080977366    2.45554099725827
H         0.44652536546598   -0.15548680912936   -0.17633100767606
H         1.11735701675463   -0.34656992891883   -1.75457265737525
H         1.18415590865438    1.26713865232037   -1.08847260245233
H         3.35261790622925    0.41358430009706   -0.89713037892395
H         3.05127549343309   -1.96034764406710   -1.13244754281357
H         2.25409836753036   -2.14473168752838    0.54498302329918
H         5.03729678505776   -1.27597640921970    0.14655498052744
H         4.50644023960028   -2.79166913394994    0.76673777228678
H         4.35840732924986   -1.88071185801284    2.86926836302288
H         6.26237296762197   -0.44436729511287    2.22940797346954
H         5.09230791721364    0.38852189784977    3.32631234725088
H         5.37147261489000    0.77082084992207    0.31234487273233
H         3.59188810290635    2.39046051200952    0.41008488476816
H         3.58713514749397    2.29755766309572    2.23464791388013
H         1.66919356994868    1.03108403729480    1.39474574887375
H         3.01765756680891    0.24998664348799    3.29823390661334
H         0.96529764773934   -0.77801268112949    2.85124891204148
H         2.06774553942946   -1.91687057497816    3.36819601902294
H         5.89004539366249    2.47127724735699    2.69627882491977
