36
 energy: -51.089719224118 gnorm: 0.130761254695 xtb: 6.4.1 (79825abcba525fcdf90b791dcacef51065a7a4e7)
C         2.27796854757989    0.40431541529176   -1.11895745609874
C         3.34097655355007   -0.13119498146541   -0.14013068069869
C         3.37344691230553   -1.64862847062836    0.11673197812599
C         3.97395398332942   -2.08884287223768    1.44932457102686
C         3.66323025578176   -1.15045022232345    2.61771452387414
C         4.91556308835428   -0.42836063010997    3.14153932225640
C         5.46615354739446    0.56801406312095    2.10163559117238
C         4.29605876906024    1.46918429699654    1.65690535732121
C         3.07410935757395    0.67895694054986    1.15246679265540
C         2.52286280131280   -0.18909888006978    2.28715141156225
N         1.20003737088579   -0.78605914905939    2.13202678285761
N         6.60449510860981    1.31269813898820    2.64117646514620
C         7.46667032318182    1.81381136760702    1.72277565858262
N         7.77442904221329    1.22725287363645    0.55925464918242
S         8.84894883944766    2.25449249650581   -0.20208471364822
N         8.79951676291140    3.51044478294735    0.89714709535202
N         8.03330180053806    3.07988650194110    1.88283240887533
H         2.36643471391427    1.49539197950392   -1.16443854729764
H         1.30411593999064    0.13598700664241   -0.69376111904115
H         2.44523042603744   -0.05367171702086   -2.09751800372943
H         4.35329666216398    0.18541901767038   -0.42788038019838
H         4.02968533775679   -2.04406971691724   -0.67024878740290
H         2.36210655284685   -2.05458341707617   -0.02814143483797
H         5.06480791988147   -2.13256731717416    1.32912246271631
H         3.58882331636332   -3.11594945401594    1.52401803114518
H         3.21126617628716   -1.75564190810228    3.42029062203998
H         5.71628256373825   -1.11340087955213    3.44991255040030
H         4.57931573010359    0.18349627016449    3.99211664752275
H         5.89519259561815    0.02939957165456    1.24805039246642
H         4.58047517626023    2.22912166756880    0.91558018118241
H         3.89123134530239    2.01363001854907    2.52491411827223
H         2.38704493669063    1.50335522939295    0.91239189257546
H         2.46703749569158    0.34365814007669    3.24521779749928
H         1.06054128888958   -1.32256363203190    1.27448953839386
H         0.45029375201171   -0.09382932493926    2.14187226121976
H         6.41827319933255    2.03054808428766    3.33891306879912
