36
 energy: -51.089258174608 gnorm: 0.130387914543 xtb: 6.4.1 (79825abcba525fcdf90b791dcacef51065a7a4e7)
C         1.54327209680284    0.18565079768978   -0.96362725379890
C         2.90571899796585   -0.04123880516913   -0.28016648642464
C         3.11274351921537   -1.55449736496203   -0.08826480283716
C         4.21635015819549   -1.84530896133035    0.92548135290353
C         3.89227432208046   -1.23670836033483    2.29180670370597
C         5.11838070148619   -0.46868540246452    2.81233236299129
C         5.40101156467431    0.65894986544138    1.79947970801843
C         4.16149442902293    1.46218528135087    1.35515493251052
C         2.85644813286557    0.69064405668215    1.08375871838083
C         2.73897859180414   -0.23482245459890    2.29809603884701
N         1.42264266643855   -0.86486119419482    2.32265214435659
N         6.33426814285715    1.53002550720970    2.51483944498085
C         7.37669720707046    1.98100243677330    1.77464887169010
N         7.69899138057430    1.54352930630440    0.55101036760064
S         9.18611567340529    2.21966383836386    0.20351201408188
N         9.30516649753852    3.18496282902269    1.56078686159961
N         8.24796239591861    2.93146312460227    2.31051931044199
H         0.74067487248055   -0.06947938624855   -0.26284975416971
H         1.57694991517234   -0.37412626214402   -1.90527281910750
H         1.30697236030236    1.22612617719381   -1.20212854735934
H         3.76608719885450    0.31950728824663   -0.86108386921694
H         3.34931646510341   -1.94405823176587   -1.08758300011413
H         2.16966715805601   -1.95862290251568    0.30655981859676
H         5.12689838418223   -1.41154253069191    0.49065816795850
H         4.35583506557578   -2.92981175758467    1.04059096805907
H         3.57245433338687   -2.10480996406581    2.89078211794675
H         5.97753918997899   -1.14672244675793    2.72493525447252
H         5.17121524539624   -0.09917837166418    3.84750670533747
H         5.93510733721355    0.19016419775505    0.96415378715821
H         4.54260587378029    2.11838609074758    0.56009833859143
H         4.01152054487386    2.10686058190397    2.23586323265644
H         1.97938892243106    1.35336558684239    1.11364452919175
H         2.80765776877656    0.33601343350231    3.23311856208807
H         0.67352336246948   -0.21583050484101    2.56810218282689
H         1.37142112714124   -1.64777153405254    2.97520272467197
H         6.08812997472749    2.16214911891833    3.27422026700933
