36
 energy: -51.089453401094 gnorm: 0.116001053757 xtb: 6.4.1 (79825abcba525fcdf90b791dcacef51065a7a4e7)
C         1.14527340518712    0.33315717550004   -0.72871385536913
C         2.55195444222332    0.08451955552919   -0.15053835098284
C         3.04323889802977   -1.37263537136280   -0.22107939982076
C         4.35043375626285   -1.58797575835730    0.53725458471980
C         4.23693795709126   -1.06782934167717    1.97211739030684
C         5.31157795689647   -0.04269043948995    2.37009004833337
C         5.05904059403017    1.09630674508891    1.36201152206396
C         3.63537931684196    1.68009995261481    1.46872837707437
C         2.53496610751103    0.61514557923229    1.30428797200911
C         2.88496885734775   -0.45822987336083    2.33882448294314
N         1.88131197667924   -1.48844986694342    2.58704165962449
N         5.99573233030165    2.21238076697043    1.49790677055832
C         7.35017838659566    2.16410498339167    1.46525820341783
N         8.02532692054334    1.12219630537443    0.96411130604778
S         9.66122126007856    1.45853676956234    0.97739536734895
N         9.43652669257377    2.83920314854911    1.88923030433811
N         8.16043508028627    3.12236201082423    2.07751895026965
H         0.48928089575399   -0.36335863571258   -0.19497011258623
H         1.11166280102653    0.09730105293224   -1.79849100496794
H         0.91406805016742    1.38202212335344   -0.52442027269048
H         3.28000855583144    0.71557204967748   -0.67925962665972
H         3.15044309293117   -1.72959533441629   -1.25425322446309
H         2.35709493432848   -2.02571050055688    0.33685994488682
H         5.17115073664014   -1.12448126687406   -0.02658857095406
H         4.52426420720133   -2.67135891933594    0.60737234821274
H         4.32474322507885   -1.96615643497567    2.60453771931359
H         6.34351792255782   -0.35065382199424    2.15611745671660
H         5.18840471222438    0.07858025846415    3.45684422557999
H         5.20930278946761    0.62511786171206    0.38313971131406
H         3.34546203819718    2.41234133552915    0.70209223163006
H         3.53865467391084    2.22303452771812    2.42246415381254
H         1.58899862604043    1.12552429841991    1.53663465877836
H         3.01569848923753    0.12431049983227    3.25990758293467
H         1.15334068837578   -1.09403731082746    3.18467268393985
H         2.31636546513962   -2.16944985491969    3.21022862878772
H         5.63661795082787    2.98946027762479    2.04927578423875
