36
 energy: -51.087413873514 gnorm: 0.127243657484 xtb: 6.4.1 (79825abcba525fcdf90b791dcacef51065a7a4e7)
C         2.25087823488297    0.53832136668005   -1.26018974179074
C         3.24265813908230    0.08781719192982   -0.17010823479333
C         3.08267637841280   -1.42397174947373    0.07183584538534
C         3.90238231765672   -2.05733750710645    1.19305405314141
C         3.69667954885937   -1.34084567712771    2.52968813016677
C         4.95395267889991   -0.57780140446777    2.97820882744118
C         5.36227699758598    0.45345799595754    1.90718721509261
C         4.16831887260211    1.40999686929645    1.71094302970361
C         2.92310536570171    0.63338526054175    1.24361509841404
C         2.58666232173698   -0.29784189458249    2.41174376556909
N         1.30342128214627   -0.97127914934099    2.23834595376610
N         6.53385830726504    1.20202384413611    2.36383427232026
C         7.45717137188600    1.79502364977782    1.56774081406441
N         7.83503758231450    1.52768594435133    0.31143866072236
S         9.03499654375130    2.62268941835854   -0.07652724099957
N         9.16267859224242    3.31334507034231    1.43835305653587
N         8.20310119645901    2.80013268533640    2.18659474379365
H         1.22695318217720    0.52017147165782   -0.87084299612096
H         2.26687152414843   -0.26020563269622   -2.01070941053154
H         2.50249854734003    1.49329540262967   -1.72925397974550
H         4.23138647428229    0.46153840727624   -0.47108155014605
H         3.34131484876638   -2.04925052661765   -0.79331956770259
H         2.00147323444735   -1.58564927471822    0.18784059793649
H         4.96802904920820   -2.03601945462126    0.92797824926931
H         3.59870523092376   -3.10888220001152    1.29739279171025
H         3.42024101225615   -2.01183876441242    3.35914987798028
H         5.71893610662225   -1.33396124141766    3.19854594832004
H         4.61971633132937   -0.02943888846402    3.87179569466771
H         5.66700923335937    0.09692046922386    0.91582101241991
H         4.28877138163445    2.13936633125873    0.89763385031513
H         3.88986393886617    1.99038967490613    2.60500821929731
H         2.09989422263058    1.35448276359626    1.13559804671344
H         2.64874470875143    0.31477599653636    3.32041459247265
H         0.48013369819225   -0.37860772576427    2.35498397704914
H         1.17838382068298   -1.87373267622572    2.69806083554456
H         6.57266815097650    1.69544341358116    3.25369628704391
