36
 energy: -51.089923389073 gnorm: 0.134102500975 xtb: 6.4.1 (79825abcba525fcdf90b791dcacef51065a7a4e7)
C         1.99077788530935    0.34810819156125   -1.06780045448636
C         3.11561383082091   -0.19217080280116   -0.16353183260204
C         2.93409315002030   -1.70315433302440    0.06801912351901
C         3.81232674113603   -2.12557978996105    1.24295006237337
C         3.65895083877575   -1.27489768604413    2.50591503949967
C         5.03390495935822   -0.68600418673226    2.86207318977629
C         5.57644546420853    0.32884107783567    1.83589054834426
C         4.45052127010408    1.32140800827428    1.48075686849806
C         3.10066428334164    0.67300572404628    1.12084278185999
C         2.65486957546416   -0.13511188452982    2.34277381646490
N         1.35106642158315   -0.72666583224886    2.05913084576680
N         6.72520531535615    1.04062791203418    2.39730877622669
C         7.42926389793398    1.85340008025280    1.57170383257031
N         7.88379277098275    1.66852340959987    0.32600259984427
S         9.05884982648620    2.82420928033364    0.05566438660016
N         8.92392218592928    3.51978429726677    1.56766312342607
N         7.99227952565447    2.91532838637428    2.28230734878578
H         1.07715273048939    0.16670164946185   -0.49097850949412
H         1.90888944794544   -0.12777481928299   -2.05167572732954
H         2.12963101419944    1.40523138440715   -1.30970912481991
H         4.15161318412341   -0.09871905520175   -0.51822647577247
H         3.29517289817982   -2.26223033510244   -0.80571808317128
H         1.89690883879114   -1.92344472339756    0.35839436672359
H         4.86037717876439   -2.26028816590910    0.94333948645665
H         3.49886798217395   -3.13792094301126    1.53580081962397
H         3.33208977052566   -1.90487353688030    3.34909295833547
H         5.75044779731353   -1.48292672278850    3.10083371411589
H         4.82189709837210   -0.14422564962180    3.79611897628762
H         5.81394092797781   -0.16452339866431    0.88564054924969
H         4.75234494260647    1.93662166722982    0.62146935465369
H         4.30710554004089    1.93384235927718    2.38524655519256
H         2.29597183515184    1.40102741888316    0.94257246217904
H         2.54355485279814    0.51927231746380    3.21697509449095
H         0.74227428863877    0.02586529205670    1.73396113903448
H         1.12256574608040   -1.09042011075150    2.98480075501399
H         6.40389508040555    1.52059080304621    3.23589022891538
