36
 energy: -51.089297234640 gnorm: 0.125801153881 xtb: 6.4.1 (79825abcba525fcdf90b791dcacef51065a7a4e7)
C         2.00965836856819    0.40520668131470   -1.12959980133575
C         3.08066719709609   -0.08444193826311   -0.13559607268520
C         3.08382190260269   -1.61827121128914   -0.00523232645055
C         3.87857333226979   -2.17274431410345    1.17422942464449
C         3.78490547333971   -1.35509188892018    2.46455328827964
C         5.06066901800348   -0.51912293222484    2.65878607430424
C         5.34427395785778    0.64135723725232    1.68402148089947
C         4.12017719549180    1.54787490332650    1.44147823435182
C         2.90300250924797    0.62874556303142    1.22755139264104
C         2.66227703854863   -0.32067279343697    2.40464890723938
N         1.34737833591536   -0.93650147830908    2.25602676380363
N         6.44848623307273    1.31219962510118    2.37116475527965
C         7.50089334478535    1.90742390835934    1.75792100032350
N         7.87376104348697    1.52882397786751    0.52902751263306
S         9.10706744807764    2.55713608135173    0.06970062063375
N         9.18689492493016    3.36192632174572    1.53056012500220
N         8.25425125260976    2.92031544170116    2.35469419311262
H         1.04591727564224    0.26141941731269   -0.62872940568362
H         1.92951340740101   -0.06948537579760   -2.11419370793380
H         2.20303861590368    1.46856871722896   -1.29444736260625
H         4.03057330181989    0.28249297617416   -0.54896439630674
H         3.41489917720370   -2.23915960154928   -0.84858678192872
H         2.01057077209837   -1.83558470956628    0.09225519554116
H         4.92834788555702   -2.31899117749911    0.88629220935052
H         3.43208667693400   -3.14582889316760    1.42444665041875
H         3.82067114363153   -2.13253794915190    3.24490911543433
H         5.94092119170514   -1.17536603651662    2.66397207987541
H         5.00912970858049   -0.16928653228935    3.70083744765256
H         5.79023522714529    0.26459131982960    0.75560687290789
H         4.37269866170321    2.20783686097585    0.59966854382107
H         3.96079759948559    2.10473081026011    2.37863093011270
H         1.97878569773591    1.21690770002139    1.13155939420697
H         2.82305020591387    0.30021413452783    3.29542889680712
H         0.59004090025172   -0.28920884480106    2.03215503754929
H         0.98280694437910   -1.26036836079661    3.15245994927560
H         6.21935172872413    1.83107161867637    3.21679630580693
