36
 energy: -51.099787171601 gnorm: 0.123812573377 xtb: 6.4.1 (79825abcba525fcdf90b791dcacef51065a7a4e7)
C         2.00636793265974    0.45363337885273   -1.12425357527940
C         3.06888182007390    0.02281386248851   -0.09453619107906
C         3.09831773855360   -1.51178136619957    0.02288584998410
C         3.93911448402503   -2.09845565217258    1.15384756960146
C         3.81390012822339   -1.28046819137236    2.44128018044255
C         5.06549726890973   -0.45975078373759    2.79351680191996
C         5.25703839359629    0.77737326060349    1.89343452952264
C         3.96710712066705    1.58882579770155    1.65545029216706
C         2.79540914313486    0.65796764481132    1.29116383404557
C         2.57510513215820   -0.38804802300193    2.38762173200149
N         1.41330350434561   -1.24080048634800    2.15670542653511
N         6.35796848071890    1.63919010153195    2.32552806305587
C         7.49354311429739    1.91628025519774    1.63878800335488
N         7.80414383485443    1.57250320082503    0.38264629963579
S         9.23629731192168    2.34791177824023    0.01233612423650
N         9.28140044733992    3.20533314196036    1.44445503172393
N         8.32815279911217    2.83408692189572    2.27964155582380
H         1.01631556929237    0.05267051784122   -0.88059822836929
H         2.26837692830383   -0.00522617179305   -2.08445153960566
H         1.86234710618128    1.53526182894656   -1.19242509118219
H         4.02827867440052    0.39979467331929   -0.47569149417639
H         3.37032539385039   -1.93259763882884   -0.95450189486127
H         2.04745704116332   -1.75608771673947    0.23408048327625
H         5.01073598014485   -2.08267371009918    0.91363744050704
H         3.70700426195362   -3.15034824324438    1.37407339735540
H         3.80745610411887   -1.99531197430887    3.28009698502837
H         5.95000423821813   -1.10194411405195    2.68978181467204
H         5.02088233791468   -0.01704961539944    3.79996504182864
H         5.59803740221503    0.50768039749897    0.88657150867131
H         4.19341864416617    2.28835311631313    0.83850165659415
H         3.72468178391147    2.12582742602272    2.58636636686509
H         1.92045910527943    1.32122242675422    1.22886283340906
H         2.46224184878851    0.22003550746030    3.29444800408535
H         0.66500132373181   -0.64720448293172    1.79565981766765
H         1.18497352856982   -1.81584067916876    2.96824021596577
H         6.39653893228318    1.79447201053229    3.33112407474800
