36
 energy: -51.093417603154 gnorm: 0.126652653258 xtb: 6.4.1 (79825abcba525fcdf90b791dcacef51065a7a4e7)
C         1.44445191155185    0.18435250942762   -0.91290556952274
C         2.71678403163858   -0.05547119004312   -0.07713368737514
C         2.91405361256766   -1.58090927054519   -0.01581282393963
C         4.04185575450652   -1.95905264913650    0.94088470803463
C         4.04066049785270   -1.16220661772216    2.24752152048925
C         5.22990147931024   -0.18942017578449    2.30698153980026
C         5.19902955920792    1.00739704327545    1.33539137160915
C         3.80313698593057    1.65288763438459    1.45303588248192
C         2.64839664562924    0.64493814147658    1.30240321061649
C         2.76994886556098   -0.34283194682876    2.46620637295054
N         1.69553075275686   -1.25938999978847    2.83476997470024
N         6.11762918894570    2.06482173867157    1.75907508789572
C         7.40094925527053    2.23067730080722    1.35472107794692
N         8.07340454850452    1.45648633693817    0.49391930557326
S         9.69197383802440    1.79594242606004    0.72727459108868
N         9.40918731710732    3.06441658734687    1.77569022416165
N         8.13561502320517    3.14155560181559    2.11643140363504
H         1.20425576472762    1.24630352930680   -1.03500658859040
H         0.50568366494988   -0.21624535811792   -0.51363567897353
H         1.56321204972987   -0.23092667766003   -1.91727038189598
H         3.53942945513141    0.39128231755360   -0.65289580024167
H         3.21458994444376   -1.96819102865489   -0.99869228655387
H         1.95164717141618   -2.04055994772522    0.25081809387302
H         5.02671838846270   -1.83090079170058    0.47190146782036
H         3.85623757480207   -3.02937843548467    1.11059380569073
H         4.21641279845429   -1.79766240776918    3.13067713221532
H         6.18057656135872   -0.72430637142210    2.18192382542016
H         5.27376594380574    0.23248405854857    3.32235614634861
H         5.40738159158666    0.72350927473901    0.29674568756031
H         3.61095627220715    2.40566494226423    0.67563422624916
H         3.78059194533535    2.12575289350148    2.44784023289542
H         1.66587506372467    1.08529245681482    1.52615592326931
H         3.06501231853155    0.27590585459233    3.32349200861314
H         1.46684964241059   -2.00018572657778    2.17024538789430
H         0.84991569493603   -0.71401208464246    3.00474823582646
H         5.95550561481379    2.37168432823905    2.71634976033726
