36
 energy: -51.089396421735 gnorm: 0.125995311396 xtb: 6.4.1 (79825abcba525fcdf90b791dcacef51065a7a4e7)
C         1.34701658258645    0.13016840125901   -1.04718380376393
C         2.56614845033196   -0.02698916871299   -0.11773339011698
C         2.85753209585427   -1.53295014951875    0.01193546544023
C         4.18415968355770   -1.65955848616523    0.75640162960640
C         4.15827143193052   -1.01918926248723    2.14619366353420
C         5.28429419305567   -0.00096991733628    2.39000753507610
C         5.14383296694300    1.20721243119773    1.44244326273459
C         3.66924311423122    1.65569023465695    1.38356366022520
C         2.56478706439399    0.58515125439234    1.30481868542054
C         2.79158856052708   -0.40721142669607    2.44879417520825
N         1.77785802410141   -1.45726010637202    2.45514107196941
N         6.05425004056150    2.30077679391997    1.78411251642601
C         7.39006116295277    2.21178343634334    1.57054885698256
N         7.95243063129028    1.53522057732859    0.56131611083479
S         9.61363099319601    1.64773029055540    0.69248999163259
N         9.56325872259126    2.60325242309196    2.06092352699596
N         8.31223162281760    2.90727401948799    2.35510616141033
H         0.45912090330184   -0.35885719666277   -0.63144584916523
H         1.67875444164635   -0.27520485588415   -2.00989011634012
H         1.15445058359768    1.19564471095528   -1.19880182303448
H         3.41847234641232    0.36786981732154   -0.68823016430701
H         2.87440784663951   -1.98411569094739   -0.98932681948632
H         2.21030731373304   -2.04073045263463    0.74122019125980
H         4.83832966611994   -1.06626636849393    0.10341716969225
H         4.65421692967068   -2.65235515031157    0.80387328570457
H         4.33956318507187   -1.85348358487244    2.84314636765526
H         6.21968783893108   -0.53815411582603    2.18507423703142
H         5.26721917546590    0.30703795691034    3.44629937958184
H         5.55957839679105    0.87476468712491    0.48357834230198
H         3.57376126964904    2.32158871915300    0.51441300472013
H         3.51483736836283    2.15732750025653    2.35220417787054
H         1.62848414451803    1.13583430011027    1.47631474439420
H         2.76531938616319    0.16908117182388    3.38262196909113
H         0.89967791341128   -1.07981693795697    2.81431045413591
H         2.05710181072378   -2.19916658356602    3.09778576415650
H         5.80601454192918    2.89853039126362    2.57017438524430
