36
 energy: -51.088745974338 gnorm: 0.148036810953 xtb: 6.4.1 (79825abcba525fcdf90b791dcacef51065a7a4e7)
C         1.98333481222344    0.12313863978870   -1.14319865597830
C         3.14809542719499   -0.09439519477340   -0.15787089155769
C         3.31168131685687   -1.60950459322310    0.05966076248374
C         4.15439300848942   -2.02049182172371    1.26428797959332
C         3.95698929202631   -1.13950058905675    2.50006748025685
C         4.99219888590077   -0.09462833690617    2.94809215129416
C         5.24121551133854    0.99166322915302    1.88260009997703
C         3.85724238296014    1.63486770446326    1.65917057693090
C         2.81087242083673    0.61212831958149    1.17834663356430
C         2.66907327758111   -0.32665834348789    2.37979371850397
N         1.43544247426871   -1.06171238529171    2.11875218997004
N         6.19614616522221    1.99188342072739    2.36129325726605
C         7.30782827143472    2.12004853618898    1.59601083896629
N         7.62983329589010    1.54551400094840    0.43034783128376
S         9.14466859377403    2.05404589865441   -0.05557498210663
N         9.41231445290303    2.84821820194327    1.38866402028165
N         8.33926533506739    2.87498712830371    2.15800813760132
H         1.75267791633258    1.16139050475828   -1.40620677934342
H         1.07039743011639   -0.36709901603553   -0.78627667763322
H         2.23714178323977   -0.50637800396136   -2.00028690601461
H         4.10878147446465    0.28857407612940   -0.52969483615121
H         3.77919398890447   -2.11696942589324   -0.79489913650131
H         2.32783175513612   -2.08067638763539    0.19616763431553
H         5.21940808454497   -1.94762128492945    1.00591740990037
H         3.88365504568303   -3.06043418482293    1.49682485602305
H         3.80713364295012   -1.78459294567824    3.38100782889495
H         5.90439565082208   -0.66320778578478    3.17201233049875
H         4.60508686968413    0.25349778035894    3.91755867434254
H         5.67680404403671    0.49956777736312    1.00459533242133
H         4.02521618804688    2.36274215501098    0.85297952265559
H         3.53532774365518    2.21639620755793    2.53777234757450
H         1.88736226344199    1.19018179457940    1.02898458750305
H         2.54655449212774    0.20994726014233    3.32946794197154
H         0.78168740020204   -0.46245315922060    1.61263068739225
H         0.96983842843370   -1.43544278561506    2.94635895973701
H         6.39385625372149    2.12273735449275    3.35155152811323
