36
 energy: -51.089770261541 gnorm: 0.128374443326 xtb: 6.4.1 (79825abcba525fcdf90b791dcacef51065a7a4e7)
C         2.15703084140849    0.37898723578271   -1.23069496673931
C         3.12582170825961   -0.03104037236907   -0.10455966061461
C         3.19429306242976   -1.55989720403602    0.06140838524774
C         4.08769608261039   -1.99803811015935    1.21901967292721
C         3.82920734217393   -1.21373514736997    2.50755267279209
C         5.08296757903165   -0.40199885961923    2.87267263837558
C         5.24793213519218    0.80813966731363    1.93157569540081
C         3.96368443486505    1.61800913525966    1.65985209461160
C         2.80993938497809    0.69418210233970    1.22684670888166
C         2.62014603956508   -0.28777212265461    2.38643584446874
N         1.46801502262065   -1.11628820498001    2.04519200010358
N         6.24077088274716    1.75507016894872    2.44056883580997
C         7.38175602076234    1.97802873494969    1.74317152614264
N         7.40172458298211    1.90309692454744    0.40655866712071
S         8.92174833790179    2.36760065001877   -0.10648688693157
N         9.46330748481282    2.71925799640411    1.43339007298140
N         8.52124827500879    2.52341266756117    2.33793991185278
H         1.14586764681925    0.01478766437575   -1.01797333257643
H         2.37815513279163    0.02800821923938   -2.24513999112812
H         2.10606844668294    1.47053519897637   -1.26584235417750
H         4.14475325744812    0.20886694614756   -0.43931211052895
H         3.63980209842150   -2.04634040576538   -0.81680344456767
H         2.20739887328283   -2.04416934356048    0.05057683478045
H         5.11617818471811   -1.86009558277889    0.85913214303327
H         4.12525259333016   -3.07347355634556    1.44458719004793
H         3.67465755207049   -1.91080575177303    3.34711430361137
H         6.04035076850697   -0.93750531378462    2.91932092941220
H         4.81912957647566   -0.04693194241982    3.88025880065779
H         5.78467992330052    0.56857212069626    1.00567239623676
H         4.16908927943793    2.29276840086219    0.81695872322074
H         3.72067067582372    2.22702660963838    2.54516987081071
H         1.88160924405729    1.28014216525816    1.16219496320826
H         2.48030050651773    0.27555552018894    3.31807031542447
H         0.48098636216381   -0.89097113581794    2.17813160781085
H         1.60456681485613   -2.02178976217120    2.49554192802885
H         6.28961143563617    1.91932641606397    3.44429089702944
