36
 energy: -51.079640142047 gnorm: 0.128484105394 xtb: 6.4.1 (79825abcba525fcdf90b791dcacef51065a7a4e7)
C         0.90858449016055   -0.93228244155747    0.00600216909227
C         2.43164988850954   -0.70936159932865   -0.06773506439149
C         3.22049201478596   -2.00040110523146    0.21613462812875
C         3.64226092185494   -2.06495150310296    1.68178961283897
C         4.31866237420406   -0.76524807988415    2.12396258631521
C         5.51736709583919   -0.56136021696371    1.18285694884363
C         5.51830748398579    0.80353893856580    0.46566700546218
C         4.12876449992953    1.19286808025671   -0.07894984726293
C         2.92210863233750    0.57241340996306    0.64981299214204
C         3.25050802169010    0.32697474911704    2.12521674874392
N         1.99773210840712    0.23608909405942    2.86857696572023
N         5.92497226207372    1.81926833480674    1.43746827413321
C         7.22404343683606    2.18210518154481    1.57415812549962
N         8.22650077665724    1.91003293794744    0.72940761458287
S         9.61341119965020    2.52817850009251    1.42498450500341
N         8.85633930324485    3.17263902286655    2.76650715859820
N         7.57323837810987    2.86094283981409    2.74329370387927
H         0.32528905672890   -0.01158646322986   -0.10547955170468
H         0.62441374404077   -1.44551822177619    0.93175426690595
H         0.53679597659948   -1.58104263497695   -0.79161488668331
H         2.58870200324879   -0.35186597656372   -1.09504598932795
H         4.16386963853965   -2.03749396300652   -0.34513543170307
H         2.65006318262442   -2.89592318779833   -0.06890591735684
H         4.21651687982842   -2.99308838762952    1.80473115389178
H         2.78280799045837   -2.16738643486488    2.35980166239292
H         4.57931555558773   -0.98339859290632    3.17235519223943
H         5.55662148866337   -1.33758491542345    0.40731835870022
H         6.44425149565354   -0.62735636064541    1.77229964348817
H         6.26466357440578    0.71814096009882   -0.33336207643949
H         3.99612734491380    0.96047917524850   -1.14495323346477
H         4.12256885155014    2.28999099580855    0.02119232524431
H         2.25253249300384    1.43967383642410    0.55572243325810
H         3.64799302048834    1.28744023647694    2.47784871937355
H         2.07283889306933   -0.04263722559381    3.84803441812915
H         1.18760925021310   -0.11154244690725    2.35452660399633
H         5.31379791426387    2.12970949194139    2.19040631219944
