36
 energy: -51.086819517219 gnorm: 0.124295705707 xtb: 6.4.1 (79825abcba525fcdf90b791dcacef51065a7a4e7)
C         2.36816481523165    0.56612863802411   -1.29614943061574
C         3.27983213563265    0.26292323818263   -0.09124766373612
C         3.39330104942419   -1.27184410742859   -0.05587936536819
C         4.28451864969775   -1.77839265470731    1.07519978591425
C         3.90008114886078   -1.28113245968781    2.47062263732701
C         4.96158193929795   -0.38215213500401    3.12575128522677
C         5.20173361674660    0.77366688169178    2.13392389574369
C         3.91088547435491    1.59611167828537    1.94337195988412
C         2.85715585956540    0.64273536423385    1.34939791275570
C         2.61498447937624   -0.45955005921398    2.38439665659244
N         1.45862422530746   -1.27882625139500    2.03524111614395
N         6.28081037381676    1.67092884426653    2.54864605359048
C         7.31097294984924    1.92091221843551    1.70354607959283
N         7.89296399162083    0.98576653636355    0.94240456663168
S         9.08211104581629    1.76355022107694    0.06466116166088
N         8.77071963456538    3.27528839344010    0.70172735609535
N         7.83558168654018    3.21293493521911    1.63214146752846
H         1.67082814509036   -0.21694759146699   -1.61372777610092
H         2.92948468078617    0.67732376048908   -2.23088820584855
H         1.83970602312954    1.51300981955986   -1.15666184431267
H         4.25244075256270    0.76588180086568   -0.18559476647661
H         3.86597932298590   -1.67593346649341   -0.96122368606838
H         2.36865957913963   -1.66764886442237   -0.01065310392477
H         5.30377068075070   -1.59674925319156    0.70852067984777
H         4.09908796238251   -2.86114299979949    1.12124047192301
H         3.67607970620370   -2.11013549956754    3.16144395676686
H         5.90648120691228   -0.88575616465393    3.36880301048381
H         4.53011443244768    0.10378628078920    4.01378986659718
H         5.55630399304632    0.44568452845250    1.14929445881980
H         4.09977612433944    2.46563786307460    1.29823245944505
H         3.61699869371620    1.94551009719047    2.94601688017292
H         1.90033789037893    1.18273684356069    1.30224226116675
H         2.51753258847175    0.07809342670804    3.33638415151861
H         0.69237683536803   -0.72115713133275    1.65506170367457
H         1.00124764704716   -1.76499542299451    2.80714830734954
H         5.94536383797879    2.51771156423574    3.00390217043156
