36
 energy: -51.089820380683 gnorm: 0.130104717323 xtb: 6.4.1 (79825abcba525fcdf90b791dcacef51065a7a4e7)
C         1.45135760229322    0.39741600303677   -0.89938593419511
C         2.71363536053129    0.06820068574504   -0.07894019911684
C         3.23848163232624   -1.37423636221210   -0.19533876726631
C         4.46172815101412   -1.52644519699069    0.70505042601004
C         4.17424264980773   -1.14596004836839    2.15930210906726
C         5.18784413082368   -0.09011930374473    2.63042360650431
C         5.06809830912515    1.09398700971633    1.65018630586123
C         3.65508114709147    1.70385122195038    1.54789979501434
C         2.58316322036430    0.61319204720244    1.36478192429184
C         2.82424227875892   -0.47718502621507    2.41257065825390
N         1.73546070164800   -1.44760231945751    2.35656120622601
N         6.01548340824725    2.16364457782530    1.96605701106221
C         7.31677111969922    2.05326406707074    1.60220673705317
N         7.85368606063096    1.08064778017020    0.85502045628694
S         9.46042870338590    1.46139335572963    0.60429640905728
N         9.38490059030475    2.88427990310982    1.47484774440637
N         8.16263649180733    3.11877824340008    1.91657430818919
H         0.59418393888115   -0.19437928527228   -0.55971776547924
H         1.72158205167511    0.22574217148390   -1.94756901280755
H         1.23634775632215    1.43009140434495   -0.61187639355180
H         3.47431407960583    0.72431170796152   -0.52472313106843
H         3.45901312181093   -1.70557135834624   -1.21903025684623
H         2.46524818878044   -1.99917554938768    0.27387122132479
H         5.21839182863631   -0.87085232463586    0.25340824463932
H         4.82126221980000   -2.56479718847876    0.66746084332296
H         4.34285475122653   -2.05936049382625    2.75253592454607
H         6.18488746841561   -0.54460731448152    2.56063087986873
H         4.97712236249229    0.20129388771555    3.67041762085325
H         5.37406957375001    0.75580700347725    0.65278790732135
H         3.63848677905284    2.58940174137046    0.89714229325488
H         3.45862525904361    2.16636577604125    2.52832363014053
H         1.57592755593217    1.04019790395747    1.47644289713050
H         2.85513237086824   -0.04082224866955    3.41928357456689
H         0.79952877199927   -1.04235262791870    2.30685805438033
H         1.92539834001999   -2.13233924236634    3.08899110221476
H         5.64833849088387    2.68879512788021    2.75741343240055
