36
 energy: -51.092095732277 gnorm: 0.132878911832 xtb: 6.4.1 (79825abcba525fcdf90b791dcacef51065a7a4e7)
C         1.73224420842240    0.22794163400069   -1.07061104093941
C         2.88578280887202    0.02006450756521   -0.07011369837492
C         3.08930741781512   -1.50239517184985    0.03152890958863
C         4.19379922544021   -1.88992536343042    1.01138529121704
C         3.89597433379561   -1.21404115862906    2.35181274760039
C         5.04547129652256   -0.23418664635652    2.63936277230030
C         5.20976885189040    0.90514704154541    1.61357667925550
C         3.86059372089652    1.64330785106523    1.49585012983529
C         2.70815115693135    0.63340254949426    1.34078519254664
C         2.59290102102616   -0.42198700544362    2.44431267130208
N         1.43091502316830   -1.30178930104437    2.36666852790403
N         6.20379437051436    1.87163188326107    2.08187198766607
C         7.43429456333780    2.04188990974531    1.53891518281699
N         7.90430412330914    1.67161379529829    0.34119482492638
S         9.49575566520584    2.16908224490538    0.24497217923834
N         9.49909850097661    2.83715127259239    1.77528026972893
N         8.33802198095883    2.68618690655138    2.38614231400629
H         0.91606660233331   -0.49887542043162   -0.99357911886666
H         2.08607533409089    0.09779440562865   -2.09971073028553
H         1.40969107470849    1.27251595985380   -1.05906031519172
H         3.74872573302982    0.41676177584974   -0.62310287176935
H         3.11120408524574   -1.92745983175482   -0.98099362679050
H         2.10759353840120   -1.82190821860827    0.40934666288445
H         5.17919538282470   -1.61378902021061    0.61255481020892
H         4.11346263223782   -2.97395303844525    1.17655986693192
H         3.91539822549634   -2.00131395775418    3.12283872909369
H         5.94318797267493   -0.86461164057169    2.68621264207970
H         4.90237464509576    0.32562477019482    3.57587087192610
H         5.55775681615244    0.49185384740712    0.65917590897763
H         3.86528101016894    2.37350325919315    0.67441653188704
H         3.67317777388979    2.19078179294516    2.43334311458522
H         1.73270280396282    1.13248832640000    1.24729824969569
H         2.72232996585068    0.07696085204677    3.41340337601222
H         0.57083917350982   -0.77878223860416    2.19520585173823
H         1.21555260505161   -1.74649695819940    3.25955634226331
H         6.01179445045444    2.28928858428630    2.99045462066557
