36
 energy: -51.088866370440 gnorm: 0.122718646651 xtb: 6.4.1 (79825abcba525fcdf90b791dcacef51065a7a4e7)
C         1.92227234729958   -0.09038072585768   -0.99145463781621
C         3.15093025893459    0.17573158517202   -0.10013927180972
C         4.14513209750509   -0.99698590696094   -0.02311131259385
C         4.27684272641274   -1.83291279098186    1.24735271736491
C         3.89380944462001   -1.05536832855988    2.50869128058482
C         5.01239706451280   -0.09171148954689    2.93795851052363
C         5.04676926721070    1.11251662845975    1.97568764454532
C         3.64069213109470    1.73094323008569    1.83600926585861
C         2.65063460360622    0.69573328420961    1.27014342942438
C         2.52971039369776   -0.38696943832425    2.34626364059594
N         1.49098038555252   -1.40701069193782    2.24211022346272
N         6.09608958019096    2.07879765095341    2.30234960624737
C         7.29924390281492    1.99407789893379    1.68334810296142
N         7.34936062867102    1.53768228360343    0.42567611774995
S         8.90077616863485    1.82028422638382   -0.12450352147236
N         9.50205284399306    2.46987256828651    1.29136073652642
N         8.51200295717035    2.49084333713031    2.16508998704287
H         1.13618398656096   -0.52525208883327   -0.36432242333583
H         2.02489849152046   -0.71981985638976   -1.88277679251143
H         1.57174550133553    0.89148206608926   -1.32067469918561
H         3.67016769784920    1.01263173625126   -0.58781420918261
H         5.10790780935966   -0.48954324660654   -0.17118622966234
H         3.96582091352369   -1.60930308158570   -0.91838341926644
H         5.31968482841087   -2.16366000837963    1.34435394031070
H         3.63511274758845   -2.72156894056575    1.16176370717429
H         3.83177715151498   -1.77055552800543    3.34494247590623
H         5.97095364377018   -0.61281255219601    2.81487815472723
H         4.92495734590233    0.43215802593447    3.90171569420333
H         5.44265105160311    0.75587337812741    1.01711009234872
H         3.76372231835703    2.57150138147359    1.13866715519405
H         3.36862765951086    2.24870345483729    2.76963167610922
H         1.72280254337330    1.26541998275004    1.11551282497437
H         2.46288737918992    0.15170458658865    3.30030901503572
H         1.69714721794184   -2.01189926784476    1.44569867907358
H         0.58293201904524   -0.98437362281890    2.04660936173959
H         6.07947565342548    2.45868641274871    3.24692993503150
