36
 energy: -51.092601998612 gnorm: 0.141978225764 xtb: 6.4.1 (79825abcba525fcdf90b791dcacef51065a7a4e7)
C         2.53207973020768    0.56360578236251   -1.26585690835060
C         3.40223109646163    0.03000326859067   -0.11131629172294
C         3.19446337797725   -1.48799932271356    0.03747081521051
C         3.91721778399316   -2.15633678199767    1.20415473600006
C         3.72564785765026   -1.38021973890608    2.50922488121840
C         4.97865575703829   -0.62020483993791    2.97451146489254
C         5.41510801959745    0.48991511946694    1.99754930993843
C         4.24422948688188    1.44849026654406    1.69889982902571
C         3.00506441203054    0.65130139728735    1.25052782504520
C         2.62724688860023   -0.32821972452121    2.36529003340805
N         1.27914781154933   -0.85336309867419    2.17255863228588
N         6.52296213363529    1.26039650997990    2.56367456798312
C         7.37169387901569    1.79872191718146    1.65384999395999
N         7.56509173147620    1.51073615292816    0.36071083694707
S         8.79261883835201    2.50968428973169   -0.17289152443709
N         8.97278398405728    3.26790233129444    1.30386714596829
N         8.08481845612367    2.86951122678470    2.19652783438366
H         1.48099825047876    0.59603526846550   -0.95841769268814
H         2.66232674884133    0.05853514448076   -2.22976576602365
H         2.74882007182240    1.63165330583052   -1.35307827951559
H         4.48183174874475    0.13879380153610   -0.28585354470896
H         3.42195522017627   -1.87319797259162   -0.96563972199496
H         2.12317243713887   -1.58388061793900    0.26493391137040
H         4.96872382072126   -2.34962786072925    0.95256738223953
H         3.44533102826537   -3.12965643971015    1.40119359962358
H         3.43497502656118   -1.97734133239801    3.38877696766781
H         5.80980108778705   -1.33559194996777    3.02877469314320
H         4.87381534155102   -0.20540748276400    3.98834798341064
H         5.68086750508227    0.04192319590139    1.03242610056993
H         4.52270809403387    2.14337150284088    0.89419481489013
H         4.01685428347902    2.13735255588071    2.52806493037308
H         2.16103623758124    1.32176196104721    1.03275515750589
H         2.61400972405234    0.26119087303650    3.29117203697123
H         0.67931791043226   -0.07000863039748    1.90944998390638
H         0.85685528870707   -1.31242463612035    2.98022566406669
H         6.46595483838883    1.80342652410288    3.42314652331879
