36
 energy: -51.081077041878 gnorm: 0.138935122629 xtb: 6.4.1 (79825abcba525fcdf90b791dcacef51065a7a4e7)
C         2.05941332026563   -0.08013208605754   -1.12740850391255
C         3.23036123264279   -0.13871480172441   -0.12725441617975
C         3.49008249981848   -1.61644789467203    0.21696461973878
C         3.78911353518151   -2.05781803086395    1.64733981058625
C         3.54545413122441   -1.01751077357211    2.74308421902764
C         4.83462898833599   -0.26855767770091    3.11890412585887
C         5.37510616931296    0.61829479390187    1.97930369402953
C         4.23717590442537    1.49498909582784    1.41757759300247
C         2.92325712760390    0.75792392298248    1.09753059183858
C         2.43226485766718   -0.07779672687677    2.28302635314389
N         1.16584969578128   -0.78748456176916    2.13193705066874
N         6.64433739569680    1.19493983525543    2.42428990513076
C         7.49339048347452    1.85290184616325    1.59717719411363
N         7.61881502735505    1.79275315894750    0.26556229072008
S         8.95338791086479    2.67144819604135   -0.22050551180456
N         9.36546471514001    3.00575259840287    1.36272015908989
N         8.52793658015719    2.51701233369849    2.25922500356280
H         1.13097061290945    0.14137109979556   -0.58956715728575
H         1.80466485187454   -0.87574033906750   -1.83683902616055
H         2.35799129106760    0.79211455186732   -1.71507036847791
H         4.16989336579972    0.26775532506404   -0.52712646433225
H         4.40111960280417   -1.87729711465811   -0.33831045119169
H         2.69216262317259   -2.20181598339039   -0.26185169097772
H         4.83006907245712   -2.40428931669530    1.69922279307824
H         3.23596192260982   -2.96496141542890    1.93012380651869
H         3.15623185585317   -1.46953051108163    3.66982096508253
H         5.61717513859961   -1.02031401011507    3.28626528128799
H         4.69596287791687    0.38306892552006    3.99472794919775
H         5.62390476950394   -0.06818850274075    1.16099589435371
H         4.42106102509058    2.04815097542215    0.48582728258375
H         3.92348280468946    2.22894782936265    2.17695019892583
H         2.20475903620013    1.55100204079842    0.84432414185037
H         2.32197583429205    0.62016445040107    3.12298119926308
H         1.30349496299033   -1.58938095544416    1.51494251194175
H         0.47148012426694   -0.23970073876328    1.62284147560065
H         6.66799781132022    1.46665802102959    3.40532654847390
