36
 energy: -51.096162047921 gnorm: 0.121019052908 xtb: 6.4.1 (79825abcba525fcdf90b791dcacef51065a7a4e7)
C         1.87201344059253    0.28779343266683   -1.05376137851166
C         3.13137793882645    0.09463136467185   -0.18684237357751
C         3.38582471497003   -1.42128680721446   -0.10386154344512
C         4.18643533222912   -1.90081385957848    1.10414371621335
C         3.85348277466181   -1.23524965626286    2.44146630378509
C         4.93028533914445   -0.27873994719967    2.97973065448738
C         5.28427780229591    0.77781881016977    1.91404545252774
C         4.00128282452150    1.60487293592179    1.69286727703699
C         2.86068757695887    0.68468014247467    1.21919507479492
C         2.60908858548509   -0.35860821085118    2.31150907478892
N         1.44928178645982   -1.22307590046216    2.11699453812329
N         6.30346424119079    1.70224712229586    2.41221356305649
C         7.44927728973724    1.97517889182068    1.74098980776961
N         7.71015406628064    1.37183274995755    0.57460041912005
S         9.02752543544018    2.17985676741311   -0.05870956461373
N         9.33887336274442    3.02702318262456    1.34611846261421
N         8.41311909239610    2.83677906165061    2.26852161162229
H         0.96661147640257   -0.04031216762788   -0.53132782433152
H         2.04694668922932   -0.28216013550753   -1.97339838112914
H         1.72066442252043    1.34766168529990   -1.27530644119258
H         3.94310398283209    0.57302844600549   -0.75259254428782
H         3.90998722032161   -1.63986417833984   -1.04398860673013
H         2.43659690200941   -1.96956230163272   -0.18727313393201
H         5.26203656856989   -1.70639660869828    0.99641021019505
H         3.98129783457295   -2.97993362283215    1.15180632339046
H         3.57295773737123   -2.08560126142971    3.08401173391812
H         5.75691934549879   -0.92903294311792    3.29488305134913
H         4.49972294861567    0.26873435329935    3.83167008691497
H         5.70073781019037    0.36142882810704    0.98885998685573
H         4.27986788908840    2.39728178224923    0.98403794256252
H         3.71453841585615    2.11721185113631    2.62508613796459
H         1.95733648837243    1.29454469157216    1.07308582274744
H         2.48404906194739    0.25164031290597    3.21527864154261
H         0.59874481097809   -0.65833117115388    2.13478607884715
H         1.39450081833665   -1.97166917560954    2.80837118238508
H         6.12413749973262    2.11715376541558    3.32463774348630
