36
 energy: -51.087491408610 gnorm: 0.129289142635 xtb: 6.4.1 (79825abcba525fcdf90b791dcacef51065a7a4e7)
C         1.87427157172352   -0.43803215892717   -0.93774426601693
C         3.17837032158815   -0.07495057122145   -0.20129517315045
C         4.11578587725656   -1.26474442365120    0.07307597372151
C         3.91223822349495   -1.94371718649957    1.42502441732142
C         3.59200231707839   -1.01173793050936    2.59597635273160
C         4.87262967003786   -0.27814539797100    3.02722875460153
C         5.32756729140458    0.87049890351346    2.10475382695691
C         4.18296116181970    1.67406625167580    1.45423810096513
C         2.97196622771793    0.81192925902674    1.05138739861301
C         2.49025164686546   -0.01193347205501    2.24892810753085
N         1.25912809809798   -0.78777513403304    2.13624889147682
N         6.33645755785403    1.80189083742729    2.61084636929797
C         7.37729666022310    1.97442364874497    1.75949036349406
N         7.50789340227676    1.38906454977941    0.56247461368409
S         8.88968320837522    1.98098183240022   -0.16535952856455
N         9.27200633942145    2.94784855285590    1.14122687279748
N         8.45036526514701    2.77290771224982    2.16021804952073
H         1.72223300803903   -1.51190345914618   -1.09275238390932
H         1.83364807912650    0.07317078869680   -1.90635264820601
H         1.04675893801239    0.03832791368035   -0.40519063421479
H         3.63553279079407    0.61350821806079   -0.92576958425349
H         5.16267185659483   -0.93651268571181    0.02154969376945
H         3.92321950626755   -1.98893772049679   -0.73132393490079
H         4.80205752630703   -2.55277910388259    1.63380127904323
H         3.07499118814292   -2.63711874996594    1.26051225145084
H         3.15234357727189   -1.68035345571365    3.35380894621621
H         5.69622831569028   -0.99647343282059    3.13313384412886
H         4.64303836836676    0.08205006614788    4.04135888566359
H         5.87110698280564    0.44581434801415    1.25211360796816
H         4.64967607652933    2.13920847171880    0.57459025257563
H         3.84260078833631    2.45244318239268    2.15568637898858
H         2.21802100612429    1.60180543253878    0.92104900764630
H         2.46466394734628    0.66335522624440    3.11389516657710
H         1.22018692693156   -1.20949914221862    1.20711018273114
H         0.48612389306661   -0.12163517892354    2.12545213097878
H         6.37811286275552    1.92058321815167    3.62129203894370
