36
 energy: -51.080462168714 gnorm: 0.142380447989 xtb: 6.4.1 (79825abcba525fcdf90b791dcacef51065a7a4e7)
C         2.46043663471793    0.23110837037062   -1.31445787312032
C         3.33782768178570   -0.36690154634328   -0.19757462250580
C         2.84530118241649   -1.75783394288891    0.24101588919405
C         3.67316970195301   -2.18505806349419    1.45027746614363
C         3.62516837978318   -1.23469636734903    2.64893227978585
C         4.96740977815566   -0.60865864629072    3.06197938870500
C         5.67346791923491    0.21163877751867    1.96384184952987
C         4.74066386922542    1.19396970112878    1.22633458400870
C         3.32215807438798    0.65237712875094    0.96827169161765
C         2.80173268060774   -0.01271993919541    2.24565411142785
N         1.35681402290663   -0.20033680145888    2.16020176530631
N         6.84671312663585    0.84808458092798    2.56376900288965
C         7.54292383036978    1.75354757257176    1.83346217968195
N         7.34096850547856    1.74996850893021    0.50992573763348
S         8.20903236260687    3.01723955226096   -0.14577306223665
N         8.96670752492002    3.36922167271673    1.29998182293791
N         8.44695818765488    2.70265194454670    2.31466738372027
H         2.67427557809410    1.25099797249559   -1.65274906371439
H         1.42196788988549    0.34825896978496   -0.98424683053135
H         2.37055488894909   -0.35119334608007   -2.23541142212002
H         4.30283464688230   -0.46134383398664   -0.71495110705566
H         2.95895878897367   -2.45535320672148   -0.59976358641952
H         1.81544509551009   -1.58901697881412    0.58669528040174
H         4.70459028946669   -2.41828776646296    1.15346425917379
H         3.25687282090380   -3.14951849236663    1.77487811627996
H         3.34822399753911   -1.72084984558099    3.59846552965176
H         5.63881299760986   -1.43931679114945    3.31644071375989
H         4.72639163164473    0.13438109503678    3.83703750159399
H         5.94218095413225   -0.44644420613946    1.12867252408953
H         5.22525211954929    1.60706172596962    0.33051672055265
H         4.55170797025612    2.03477665075971    1.91269081642888
H         2.59347239451026    1.41582431489215    0.65925477703519
H         3.05222997273694    0.69507918103975    3.04634700130168
H         0.88693562798570    0.69899377357185    2.04581160343548
H         1.02879564832762   -0.58365597465359    3.04725580708659
H         7.02893927477458    0.60662478378767    3.53604174512917
