36
 energy: -51.085279990677 gnorm: 0.126689670719 xtb: 6.4.1 (79825abcba525fcdf90b791dcacef51065a7a4e7)
C         2.35074000400059    0.68762873651363   -1.07701927453249
C         3.27199924635607    0.04195602795464   -0.02381119537760
C         3.35247202561960   -1.49489136704024    0.01170100746011
C         4.07681298785118   -2.06681663575451    1.22760887195301
C         3.77938253423416   -1.31381931265196    2.52637558868575
C         4.91877688686682   -0.43494529318979    3.06813574702368
C         5.27865335351717    0.62369641268079    2.00649612699921
C         4.06284481784925    1.56057659666694    1.85457661460912
C         2.89985743772065    0.69879743806955    1.32838776044194
C         2.56092948328114   -0.41493457378036    2.32318995082721
N         1.36054596274935   -1.10680335319742    1.86418110914579
N         6.46654942276685    1.34674608532212    2.46210808582668
C         7.39657217652737    1.87434065170678    1.62866807156803
N         7.73547117603606    1.30160353150116    0.46691633102988
S         9.01676034518436    2.20692693136309   -0.10591809266614
N         8.97015054137830    3.38203049785090    1.07946344289632
N         8.08124831220145    3.03554609733563    1.99261334459505
H         1.38988881276452    0.18042808845987   -1.21792815664479
H         2.68135526453015    0.67568387782037   -2.12187897567062
H         2.17867341881304    1.70250434118901   -0.70860367231525
H         4.23224383593666    0.47906967036788   -0.33154193571388
H         3.88966127571268   -1.91374297392763   -0.84989770178952
H         2.31915836121189   -1.85514002981247   -0.09356405195965
H         5.13634448865662   -2.29232941155884    1.04633675751542
H         3.67048016445345   -3.08182385455731    1.34382665773272
H         3.60977982390093   -2.01269785155853    3.36151659041713
H         5.83930647327254   -0.95414438846203    3.36576533926395
H         4.53497956338823    0.06352705759266    3.97098557119357
H         5.52991055577600    0.15816931400834    1.04579740135050
H         4.33848674768039    2.33062678273460    1.12040723267307
H         3.63576684718216    2.16490228091674    2.67075085888306
H         2.03503348463353    1.37446697415919    1.25855875051920
H         2.37800506605784    0.15413147218651    3.24380935072576
H         0.55293937707623   -0.48503721628408    1.80217488948274
H         1.21933001350442   -1.86066554690494    2.53734109422149
H         6.21390608124133    1.97269931888894    3.22445799928316
