36
 energy: -51.091758543879 gnorm: 0.121515816893 xtb: 6.4.1 (79825abcba525fcdf90b791dcacef51065a7a4e7)
C         1.41863226488995    0.29701489070194   -0.92315516581698
C         2.75644774552402    0.11072401571850   -0.18126264121655
C         3.23826813579167   -1.34569993368506   -0.30899382001800
C         4.26765352988855   -1.75321745398841    0.74195595440864
C         4.10260732778944   -1.12866252616245    2.12938367687469
C         5.18057890312142   -0.12904062807494    2.57980172483565
C         5.12512854068268    1.11546437916763    1.67126194435919
C         3.69604351733194    1.69320522442127    1.61698600014755
C         2.64056380846023    0.62501712029204    1.27491235666652
C         2.76070550863696   -0.43907132767639    2.36952838351432
N         1.72902870701814   -1.46722794450894    2.46349135092454
N         6.10939709890196    2.10612403048627    2.10862790895002
C         7.40552993615213    2.06064084899106    1.71379688535984
N         7.90382221971096    1.16317408625431    0.85425884278313
S         9.46606299793584    1.63547932148746    0.49959959948802
N         9.41564079245012    2.95431718070022    1.52248500537887
N         8.26373335601114    3.06842607584476    2.15819702969506
H         0.68923758102237   -0.37374625330967   -0.45581620680459
H         1.57028322817052   -0.01198466527408   -1.96368492670153
H         1.02777463154682    1.31758850223370   -0.95428811460638
H         3.44607833382048    0.76131271585745   -0.73712250638395
H         3.74904885880580   -1.40828332245190   -1.27932760719800
H         2.32353873690706   -1.95506244286710   -0.33232631963717
H         5.30742740559955   -1.57409852070949    0.43681781876316
H         4.17488802053743   -2.83779279028325    0.89669276529067
H         3.98109430683808   -1.90510503399683    2.90205980314777
H         6.22008935707092   -0.47955180861332    2.53413210010217
H         5.05533067902787    0.15874068624328    3.63450910545032
H         5.43729852752765    0.76981438871097    0.67835526564741
H         3.51352520817168    2.53100247689624    0.92942272660718
H         3.49427628992742    2.12360014539744    2.61086512296924
H         1.60477653719920    0.99085327463147    1.32623969897809
H         2.97357291960787    0.18272881448843    3.24866979482854
H         0.78977994651644   -1.06663116295993    2.46401723648830
H         1.85819932833802   -2.12429019039117    3.23354242863499
H         5.81346616209356    2.71471054711140    2.86946350549107
