36
 energy: -51.083947131009 gnorm: 0.128449350747 xtb: 6.4.1 (79825abcba525fcdf90b791dcacef51065a7a4e7)
C         2.31641742178048    0.53893526236984   -1.16011666767572
C         3.29596281438215    0.16379104800462   -0.03112741859929
C         3.49168493547425   -1.36306387959058   -0.03774345541286
C         4.26264547282354   -1.90771672928213    1.16191207656519
C         3.80133750752456   -1.21345735142510    2.44544769601674
C         4.96548187050127   -0.43616298682342    3.08162727604822
C         5.24674599924763    0.74794569330214    2.13500743858092
C         3.96730827574545    1.58905894276613    1.94904500995695
C         2.83388992593585    0.75444254669310    1.32386026026600
C         2.53287189580761   -0.37183180376691    2.31673323651219
N         1.42132495680445   -1.24036330289540    1.94202197350660
N         6.27726970298750    1.70992528374822    2.52755848474375
C         7.24387515975065    1.96299992449373    1.61129010627873
N         7.85763154973966    1.05449843915577    0.84286600102629
S         9.11345182496737    1.83071389428145    0.06193279410321
N         8.85047367665662    3.31362759321824    0.78302897843996
N         7.81309996614790    3.23791474193724    1.59676401457516
H         1.47097378884526   -0.12671772029900   -1.36620884703375
H         2.83839554215802    0.51027231066169   -2.12339139624391
H         1.99235246409539    1.54218310399235   -0.87066005942767
H         4.28622018454134    0.63010027806730   -0.13003269223528
H         3.91561036559465   -1.71012625424649   -0.98968685090001
H         2.50910278692956   -1.85438232740551    0.00391543203750
H         5.32431949422254   -1.81535503774481    0.89612987787043
H         4.00245689210971   -2.97425933843102    1.22225565978793
H         3.47023972145472   -1.98315072273415    3.16141078969698
H         5.86102020480468   -1.07137244441041    3.08839681313171
H         4.63270334828574   -0.12641794478014    4.08373970780822
H         5.63383478568189    0.43324314279159    1.15832310683910
H         4.20748046240313    2.42685089965365    1.27943139154832
H         3.61154314127949    2.04879490738994    2.88489731552735
H         2.00239775120115    1.43098347755972    1.07842391652410
H         2.30880152379367    0.11747090652530    3.27340083413836
H         0.64793978625656   -0.69294908749862    1.56139177442486
H         0.99461018764901   -1.84866496563637    2.64150613868879
H         6.25282368679198    2.36010391515092    3.31081682308533
