36
 energy: -51.094899542655 gnorm: 0.121276512135 xtb: 6.4.1 (79825abcba525fcdf90b791dcacef51065a7a4e7)
C         1.63006150022903   -0.27565346170039   -0.81266829896706
C         2.91807027869611    0.09680033522700   -0.05295081301908
C         3.86658897386650   -1.11553572944927   -0.06675156363597
C         4.36558061291886   -1.69290709391256    1.25531119375864
C         4.01444161416702   -0.90646772751526    2.52041172733546
C         5.07001016432646    0.19400876858621    2.71756545824697
C         4.99055975791985    1.37055499418343    1.72421829802690
C         3.54650534393986    1.91235012447023    1.73760749647756
C         2.63296128062886    0.74293930452403    1.32530513808132
C         2.59273966894431   -0.36473103282836    2.38188035257853
N         1.69734759907671   -1.50697135805168    2.22743880781322
N         6.03430564694212    2.38085168366693    1.90134882898931
C         7.30654391946059    2.19011699948857    1.47362153024633
N         7.63320593692831    1.12436687282528    0.73199087477855
S         9.26214204373882    1.23539909826814    0.38029403366385
N         9.45467372302818    2.62485267546086    1.28611993249222
N         8.32565401260502    3.09142216580302    1.78778591777157
H         0.91699095503299    0.55268986404024   -0.88830266534403
H         1.19406045217583   -1.16862691767194   -0.35041033710608
H         1.99026226878471   -0.56687186028529   -1.80299991611441
H         3.39362302886171    0.90968174642718   -0.61943966033583
H         4.76920039034088   -0.84983982313532   -0.63337279316212
H         3.37414709167294   -1.89493886642361   -0.66560772982672
H         5.44114487082859   -1.90251959974585    1.18083485531550
H         3.96120736976655   -2.71191334215762    1.33874462712908
H         4.08824002338250   -1.65602333029030    3.32500912655198
H         6.05879754149626   -0.26999851081198    2.60566120986506
H         5.00861727994301    0.67720577623240    3.70430981572565
H         5.14286901453492    1.04201178922984    0.68901351493812
H         3.44278630831269    2.77693040769337    1.06700796797962
H         3.28787924599307    2.20181855079894    2.76865846517827
H         1.61710950755380    1.13220904517657    1.16455648167653
H         2.27493449450003    0.14179659827715    3.30235154231823
H         1.83102697751405   -2.10455475045935    1.41031568042650
H         0.75535504426964   -1.12254887581558    2.30658359359270
H         6.05746199814845    3.08251633537598    2.63888118157234
