36
 energy: -51.086914186803 gnorm: 0.130693273254 xtb: 6.4.1 (79825abcba525fcdf90b791dcacef51065a7a4e7)
C         1.13598813945121   -0.71891333234140   -0.42199254827145
C         2.52002880430690   -0.05816758086446   -0.27130897784898
C         3.52020777121670   -1.22666673663801   -0.33366783874137
C         3.65721139149613   -1.95916172554303    0.99857889153416
C         3.78536900998494   -1.10073861105688    2.25911455658226
C         5.17060510228757   -0.43715633909082    2.32927570752675
C         5.41263794437664    0.73081325093362    1.35225006692030
C         4.12506307255560    1.47847729667489    0.94955444895078
C         2.74700902406539    0.79274234520254    1.00258440787029
C         2.72889477542051    0.00144712845285    2.31347196035033
N         1.50207627818434   -0.55748325643163    2.87276190595539
N         6.28421874810471    1.64160740023647    2.09540621846359
C         7.54935556801632    1.94110704408188    1.71115446018790
N         7.98028797051339    1.84341946107528    0.44731037798817
S         9.51835497628423    2.49342857832874    0.48322288414853
N         9.43311706801595    2.99395589075545    2.07393881162995
N         8.33835760269564    2.56822291490319    2.67750696215140
H         0.29709403987779   -0.03462686103760   -0.25361343271851
H         1.09803523461379   -1.48832374038761    0.35758946913185
H         1.09339057595486   -1.20775103553544   -1.39899438851128
H         2.81342811330027    0.60748431835157   -1.09511756199349
H         4.53973799508991   -0.91919403507037   -0.60270305128631
H         3.09579969691960   -1.89519576700639   -1.09625794739253
H         4.57005764584730   -2.54247294169541    0.81751998025395
H         2.85451400883088   -2.69145028907626    1.16675423579475
H         3.64099756815373   -1.74706299652182    3.14006769359427
H         5.92987484224558   -1.19794160464199    2.10513060486431
H         5.28738032592547   -0.15284086802113    3.38589348048977
H         6.05457134362578    0.35296825413681    0.54730140811692
H         4.29472946976882    1.96849920801065   -0.01949263427211
H         4.19293981202952    2.30806890894361    1.67129956982849
H         1.92733029393290    1.51356672075866    0.86892502750428
H         3.03686446182248    0.71207077458389    3.09129344483497
H         1.47944304572534   -1.55447208341003    2.65329139968542
H         0.65751702287965   -0.19401568026200    2.43003683746470
H         6.05908785199300    1.76294721869458    3.08101071158619
