36
 energy: -51.092308986847 gnorm: 0.119007798908 xtb: 6.4.1 (79825abcba525fcdf90b791dcacef51065a7a4e7)
C         1.33456285565676    0.19674557579614   -0.87428852648835
C         2.69235374470020    0.12664194956871   -0.14878971036239
C         3.17549172953442   -1.33445068821001   -0.18651198548756
C         4.38739649816659   -1.58059667050394    0.70841780731812
C         4.26391587981581   -1.04369313698733    2.13626655505047
C         5.29893294558590    0.02622900706958    2.52116843225112
C         4.99691256405217    1.21578785805660    1.58787025710294
C         3.54289517994413    1.72053263550346    1.68827246569395
C         2.56702755756233    0.58574044535826    1.32494506190264
C         2.85277705228730   -0.50379515737026    2.36232736021504
N         1.77589222986806   -1.48878271854391    2.34206018195769
N         6.01325032869173    2.24206452839701    1.82301683159926
C         7.32595377854729    2.17045262487306    1.49195491681188
N         7.89263935489685    1.11133904193284    0.90060618290966
S         9.53384740603920    1.39563833862637    0.77788003519268
N         9.49232083113161    2.82659298353601    1.63742328532482
N         8.24059067356533    3.13111574922342    1.92807574544452
H         0.71562507330641   -0.64271486360233   -0.53878140519002
H         1.64959952337075    0.01165514540061   -1.90757182297608
H         0.91819390696305    1.17764859033691   -0.62979794682221
H         3.41028041280568    0.75259138268989   -0.69706414433237
H         3.31924459739557   -1.72416273497452   -1.20328184975944
H         2.24101618390429   -1.81820862271581    0.13181285473886
H         5.29094735966308   -1.19385849258418    0.21816068028022
H         4.58761857201848   -2.66131467083217    0.73691941265353
H         4.32535413892212   -1.86363973102144    2.87013967002656
H         6.35131089399180   -0.20310516556449    2.30801985652883
H         5.36599227334377    0.28246638322650    3.58923132637757
H         5.12426070484951    0.85347937963515    0.56059096716342
H         3.36231669574579    2.60528631391322    1.06172414376236
H         3.37375286392520    2.03955897113084    2.72911761591235
H         1.53840536820340    0.94896737507692    1.46397207950050
H         2.87118092123798    0.04502544349480    3.31274562097991
H         0.87213289469798   -1.11202456695001    2.63178188922208
H         1.93175674377156   -2.33120071152699    2.89652632478016
H         5.72381749557587    3.15773647418430    2.16153863491961
