36
 energy: -51.097374568508 gnorm: 0.123585658029 xtb: 6.4.1 (79825abcba525fcdf90b791dcacef51065a7a4e7)
C         1.66355517838864    0.36385810381541   -1.03680778974253
C         2.89344136698079    0.15220443041374   -0.13268292515399
C         3.27369377325052   -1.33919479643078   -0.10487375379831
C         4.37092318876864   -1.76013041985807    0.86934443726892
C         4.14435293379264   -1.17489065132288    2.26520444173845
C         5.21367419432477   -0.10899752028308    2.55600843312254
C         5.06748818241021    1.13059019336334    1.65082118404686
C         3.65575086095150    1.75078918720562    1.68777190298739
C         2.65289853005880    0.64239079354753    1.31653362947828
C         2.77805572718562   -0.49491373136890    2.33426473737477
N         1.65274739741106   -1.42395111021322    2.30489116200180
N         6.01947123443319    2.15204119962628    2.08882379053319
C         7.29745137551332    2.04687032789190    1.64879370686024
N         7.73761880582242    1.17757671798215    0.73057330245596
S         9.32013768160778    1.61543695989851    0.42501792831983
N         9.33703505176789    2.89694520618772    1.49535495243326
N         8.20889275313298    2.96230983333091    2.17877559900282
H         0.81896944684706   -0.21562318858261   -0.64793866609905
H         1.90319958978330    0.09522157472677   -2.07198212119013
H         1.33386227281375    1.40571266080369   -1.00287956753471
H         3.66173141621563    0.79687344947558   -0.58209193692400
H         3.62974505694240   -1.55522921858895   -1.12119944417918
H         2.31421472873601   -1.82369738144253    0.12589489664017
H         5.33970642400714   -1.34741749044537    0.55717512179219
H         4.53692072181226   -2.84700145855971    0.86638779464746
H         4.06865124141973   -1.95529574540719    3.03973263173960
H         6.21302744561927   -0.52175589529547    2.36509117642676
H         5.23324476348295    0.07026693636023    3.64154705963266
H         5.40643371384924    0.78082217901358    0.66818902139020
H         3.60095428182281    2.49930341248961    0.88484959386442
H         3.56360511306410    2.32036435412209    2.62630203514263
H         1.63448498421248    1.02708506013313    1.47200079880589
H         2.85763187335438   -0.04273828980614    3.33128157980655
H         0.74617757882274   -1.00393496349405    2.51556600938722
H         1.76375173638789   -2.25793338536160    2.88242567098761
H         5.94591647150628    2.45228894188133    3.05901165323472
