36
 energy: -51.088019545252 gnorm: 0.131440421488 xtb: 6.4.1 (79825abcba525fcdf90b791dcacef51065a7a4e7)
C         1.65516465759747    0.25179872242628   -1.01178994661586
C         2.87088374309574   -0.08354125341815   -0.12610755501858
C         3.11005521574583   -1.60118425982204   -0.03022422036580
C         4.31754054140549   -1.67861660981590    0.90046569118551
C         4.04017242876563   -1.09651011358883    2.28844400309886
C         5.21223174853381   -0.21486761984706    2.75010033182948
C         5.14793057552535    1.01554482938008    1.82313616603515
C         3.75893768550067    1.66956852453366    1.67492635233539
C         2.69355297470480    0.65245882045162    1.22490311882697
C         2.68331171472891   -0.39642360211989    2.34053895641818
N         1.51016661645573   -1.24723088233278    2.16690237621205
N         6.17729439867397    1.96012763990165    2.25862850453554
C         7.37093972168703    2.11206674287149    1.63409191927558
N         7.70253737424005    1.54084466565336    0.46949079521196
S         9.30948510326869    1.89368690334741    0.18196163732322
N         9.50818750678762    2.71605271441559    1.62154563232069
N         8.38035844019633    2.80777316486981    2.30244967348511
H         0.81547656595239   -0.39678573639582   -0.73865091423086
H         1.97253214858644    0.16785049711126   -2.05745313293352
H         1.33195255122560    1.28675519988584   -0.87140305301650
H         3.74206643106909    0.43856252340530   -0.54597013091982
H         3.45299230069863   -2.01642116184726   -0.98747746084337
H         2.21978885449308   -2.13003207029885    0.33902198066527
H         5.20176116463539   -1.20030995154547    0.45808663199970
H         4.70578710207338   -2.69258111842556    1.07365106882462
H         4.04683139915355   -1.95509322069729    2.97941975622812
H         6.13799113117108   -0.78108722048730    2.58309517657598
H         5.04010739981744    0.11022482138507    3.78721217918607
H         5.51036781457521    0.81363328205684    0.80792255213757
H         3.97360094909024    2.50719709948149    0.99650282079258
H         3.34286625626205    2.04906868226318    2.62182112855582
H         1.72822323576150    1.17907186961729    1.23686415425557
H         2.60331189035254    0.11324099181839    3.30939374890023
H         0.66070701010420   -0.71251435758735    1.97938461519400
H         1.50387058062508   -1.72915095351837    3.06640664140749
H         5.98921652157408    2.28729307054294    3.20436259670186
