36
 energy: -51.085121903496 gnorm: 0.135754183222 xtb: 6.4.1 (79825abcba525fcdf90b791dcacef51065a7a4e7)
C         2.13719351417156    0.28364416059186   -1.19024030576910
C         3.25406285818956   -0.04396411044039   -0.18022308325117
C         3.32795108109992   -1.57554640169500   -0.04445443014300
C         4.12711345558242   -1.92786418339597    1.20750881451284
C         3.77419374557717   -1.16014040967206    2.48356238822129
C         5.00011366399601   -0.41971640541608    3.04305837957673
C         5.33352222818092    0.66133391691373    1.99545112393032
C         4.08691103130417    1.51614169994561    1.68840291044739
C         2.92273111355512    0.65713753518459    1.16031708128634
C         2.54218206229195   -0.27242849327724    2.31616827086824
N         1.32069776056821   -1.03267147238383    2.07061006783640
N         6.40696316157103    1.50402579031521    2.52372674998866
C         7.41100751764737    2.00694884750845    1.76419797498595
N         7.31307293254593    1.99087857378009    0.42902082025724
S         8.81577280913505    2.39572263203282   -0.17715245729041
N         9.39421781495264    2.85850502623878    1.31931140256157
N         8.58462249095587    2.53086080733535    2.30989004276331
H         1.28757981555503   -0.40591324241237   -1.13537707015872
H         2.48662800107693    0.31013548848952   -2.22868851147642
H         1.72856367659199    1.28010992433463   -1.00212572574752
H         4.25772419277148    0.27987189336100   -0.48946470858930
H         3.80335201263520   -1.99035525119946   -0.94350330021102
H         2.30696429671585   -1.97988010854471    0.00748014842527
H         5.18961522007432   -1.87910808441332    0.93358283511354
H         3.98474946417387   -2.97536620929723    1.50970840452422
H         3.47981867995083   -1.77461430264487    3.34983137084063
H         5.91688374703354   -1.00912981083363    3.17591264153166
H         4.67179973521449    0.08541160643365    3.96391044999121
H         5.67522957769104    0.12350177306878    1.10283677167839
H         4.42047586652219    2.15073987144108    0.85534822133734
H         3.66846516278510    1.99636227648305    2.58731157583851
H         2.12405709365921    1.40980584804496    1.09005964629215
H         2.52225166463156    0.33990647549380    3.22692962950633
H         0.60383710808267   -0.30593190415319    2.09564416549942
H         1.03499796083137   -1.69902240801474    2.78876504210816
H         6.50936379578437    1.81541953672230    3.48776592971992
