36
 energy: -51.093431072627 gnorm: 0.125036157752 xtb: 6.4.1 (79825abcba525fcdf90b791dcacef51065a7a4e7)
C         1.96270132338191    0.28758368635456   -1.10449784619838
C         3.14516331965050   -0.00370048936335   -0.16014822778432
C         3.23186525680560   -1.52884706537184    0.02971366520078
C         4.15055457143235   -1.98564903482529    1.15999776151051
C         3.82840834682502   -1.23587615384673    2.45472831565523
C         5.03708656085590   -0.39626310574818    2.90002589392641
C         5.30534131668809    0.78300021403900    1.94363195847511
C         4.03310697047239    1.62445828362604    1.71475991220845
C         2.91914360407162    0.69073683320212    1.20551789320876
C         2.60784142916411   -0.32953464751085    2.30417138880435
N         1.37995767679963   -1.04407175508169    1.96946215630776
N         6.45483890452822    1.48257690424948    2.51872139747206
C         7.34824871536592    2.04307374101052    1.66690991637893
N         7.59663353836373    1.60536122701589    0.42624067235452
S         9.09807882866260    2.20666805929994    0.00965478963109
N         9.27796191925633    3.14276105310108    1.38061876831272
N         8.26101742180588    2.95432047890507    2.20181021634741
H         1.01244578861681   -0.08653887139945   -0.70777433912525
H         2.05936798777018   -0.30295331081725   -2.02270399341341
H         1.96388770818591    1.35774297801618   -1.32825469596528
H         4.05254808466972    0.40540061892899   -0.62611533234051
H         3.49205758862780   -1.89329913863954   -0.97320004637033
H         2.24399257441265   -1.98541232713175    0.18544633453751
H         5.22243765282968   -1.83193194487005    0.97625802168636
H         3.86480766010385   -3.03758472757123    1.30363819710943
H         3.66352372967354   -2.04319865702152    3.18664373464461
H         5.85387981725422   -1.10931356757601    2.72701259400374
H         5.00122035684116   -0.18216611813056    3.97881638866692
H         5.72930343729658    0.27629293035275    1.06825116857560
H         4.28503051083531    2.43975910452227    1.02209873871596
H         3.69736058951593    2.04291549122132    2.67700386633516
H         2.01060313172702    1.30385016016239    1.11623128685266
H         2.42639970121766    0.18640833818005    3.25586423276029
H         0.68684233849336   -0.29736035027529    2.03786903314337
H         1.12436453013032   -1.75874734026045    2.65159517351041
H         6.23491740610686    2.11946373043484    3.28215652206782
