36
 energy: -51.084235806590 gnorm: 0.127206991099 xtb: 6.4.1 (79825abcba525fcdf90b791dcacef51065a7a4e7)
C         2.02139980564780    0.03572131143918   -1.08306479114110
C         3.25619253458870   -0.26704291300435   -0.21215734882055
C         3.42339873612961   -1.75259227868146    0.15502378529669
C         3.92095279518223   -2.06084077170564    1.56485464009578
C         3.52649999843578   -1.06843176525480    2.66111926272475
C         4.82601810601452   -0.40386300715746    3.14459015698671
C         5.57117337039888    0.35950102895911    2.03133773624724
C         4.62039455214687    1.29322948640196    1.25468776353690
C         3.22439091934926    0.69370359132095    1.00206128010148
C         2.58371953855811    0.05697778663899    2.23859792365534
N         1.23123299759768   -0.45963444388080    2.05370872798350
N         6.59156259368507    1.22821716916515    2.61923079744518
C         7.43212849833231    1.85040459660071    1.75653016251027
N         7.37754858730631    1.68490467734459    0.42905953455107
S         8.56726643482107    2.69455893674051   -0.16644142528155
N         9.20178225006249    3.15690058564465    1.30726143902150
N         8.46864354419096    2.63129709331357    2.27177684473678
H         1.17151117121051    0.60447094999555   -0.68992873652173
H         1.56336111812450   -0.91598010487582   -1.37571798180080
H         2.27060278065897    0.57074645264093   -2.00336659840681
H         4.15010122718586   -0.05570972081300   -0.81556575836146
H         4.07315803975342   -2.27185925550910   -0.56228780713186
H         2.42864192956151   -2.21691780656887    0.21382551516272
H         5.00300050019089   -2.21714296741545    1.67004475742676
H         3.41483349753555   -3.00077799001683    1.82793990296403
H         3.11530523204437   -1.61598243004015    3.52469548110044
H         5.53595299820756   -1.10453857044220    3.60347138585416
H         4.60487002854588    0.35329872271154    3.91186618612030
H         6.01981604772497   -0.25892764500654    1.24453826473115
H         5.08999695428499    1.70171296749439    0.34883167975887
H         4.43487106352460    2.14611926467942    1.92692699126864
H         2.64485451940766    1.58630452095670    0.72506491165763
H         2.61524715717963    0.87979509841814    2.96441830458387
H         1.25352020740088   -0.93128522869356    1.14832753249122
H         0.55258241227051    0.29995157775677    2.11581317968394
H         6.77409724361091    1.42617006756183    3.60122836902786
