36
 energy: -51.089751554757 gnorm: 0.120461076785 xtb: 6.4.1 (79825abcba525fcdf90b791dcacef51065a7a4e7)
C         1.84275588498533    0.63290783396597   -1.04739010613617
C         2.88457246985130    0.08997487056522   -0.05004304495136
C         3.16859968238702   -1.41985068501793   -0.14695704536863
C         4.16651838681121   -1.87393882573156    0.91519292972826
C         3.89981381654188   -1.32113311539622    2.31716990203961
C         4.99176170660497   -0.31425134095524    2.71463947687150
C         5.12937765990866    0.90257491065863    1.77777888529289
C         3.75595361576996    1.60423943255520    1.75808739214871
C         2.65596546602673    0.58799453159320    1.39843461540712
C         2.59718344088558   -0.53255260146934    2.44046217852586
N         1.45129543633720   -1.43043378694053    2.33538013293172
N         6.19896930470332    1.84515759025667    2.10791790684469
C         7.41074989877463    2.01007335670329    1.52284423964148
N         8.10474780014972    1.20100222057672    0.71270952149971
S         9.58048565643405    1.91278851608019    0.38865749603825
N         9.27323722490058    3.30559666735906    1.25690521856771
N         8.05762978404202    3.22328095536880    1.76637948921574
H         0.96303608571968   -0.00107921813949   -0.89087706838651
H         2.06703786625792    0.46881902474931   -2.10755679067324
H         1.61175389023356    1.67629814840511   -0.81655639607438
H         3.84905133777782    0.55906680463054   -0.28997954765134
H         3.60970707947343   -1.71269641574034   -1.10925999576327
H         2.22593014067270   -1.95910374200788    0.02385649849596
H         5.20244722449603   -1.62990235960254    0.64386236575690
H         4.15948343608298   -2.97275363972598    0.95273131864962
H         3.86782270191579   -2.16848684488924    3.02117632865927
H         5.93064649258063   -0.88328662036192    2.69980616012356
H         4.77695550201606   -0.10377344825582    3.77316214574078
H         5.43686176377224    0.53346228194747    0.79187974237797
H         3.62333840832773    2.32046049950714    0.93504361606843
H         3.64116336271852    1.98945479836160    2.78384461419442
H         1.74538902645647    1.20413790488333    1.42175460064979
H         2.55316853581274   -0.08522197724047    3.44185901662308
H         0.67310405423891   -0.91876451741264    2.75404353042488
H         1.64175959528028   -2.32426640364907    2.78945191499838
H         5.97641701601250    2.70167009535798    2.61158476898070
