36
 energy: -51.087702532419 gnorm: 0.121722867298 xtb: 6.4.1 (79825abcba525fcdf90b791dcacef51065a7a4e7)
C         2.22873329153019    0.36091375410678   -1.29771674418466
C         3.21020987091157   -0.01950487780887   -0.17217487521724
C         3.20295143452559   -1.54887475948047    0.00278800699894
C         4.12902592821921   -1.95599538427658    1.14595865880067
C         3.76096676576151   -1.24550332211269    2.45056524595277
C         4.95205536598646   -0.44398335096562    3.00103487331429
C         5.31335178226328    0.68948621890003    2.02020682987908
C         4.05186613309366    1.52899501901320    1.73229476706515
C         2.89496568033497    0.67987895960878    1.17313384052664
C         2.57041278584850   -0.29932867166966    2.30482302167506
N         1.36660962646318   -1.08785623493205    2.06115446069006
N         6.39698441850385    1.53821666966920    2.51707410644409
C         7.43649768156933    1.96620067109473    1.75933900593111
N         7.30243431298897    2.12238265557267    0.43639469029860
S         8.81096143839792    2.50354904635508   -0.17065535985270
N         9.49468729641990    2.74644250974713    1.33323691324644
N         8.65819829365313    2.38583696927377    2.28942264444012
H         1.30354940274015   -0.13283488904803   -0.98055766934472
H         2.68578645488439    0.02220609187612   -2.23449871344743
H         2.14001273989018    1.44689464177059   -1.20780769248986
H         4.19343437804692    0.41287717310024   -0.40487974375187
H         3.50764575192578   -2.14113691759298   -0.87056656731108
H         2.18558843039743   -1.80092725657666    0.33450932149325
H         5.18389763803624   -1.72114548136036    0.94996424323523
H         3.87741319747208   -2.99656698985686    1.39646688232052
H         3.56081904261213   -2.03064452918372    3.19766026951560
H         5.75701278326282   -1.17744768299830    3.14103284134801
H         4.64140959616508   -0.10659257488631    4.00132460389158
H         5.57303802159003    0.33079372262165    1.01686717684076
H         4.46472003192537    2.33756577683731    1.11283900699769
H         3.67171185360922    2.11446496196177    2.58461700884205
H         2.03062378003389    1.35944013109440    1.15226315123085
H         2.45844130031337    0.26264102900436    3.24103348728813
H         0.48906880783143   -0.56627981052536    2.03777832246499
H         1.34072728268188   -1.83460828310319    2.75619834439971
H         6.44628421155166    1.68196996876991    3.52391471296059
