36
 energy: -51.088436459309 gnorm: 0.127266432447 xtb: 6.4.1 (79825abcba525fcdf90b791dcacef51065a7a4e7)
C         1.66875715689177    0.29643189166684   -1.06567605322572
C         2.90163790701026   -0.00061462914132   -0.19010337326601
C         3.10063887207124   -1.52103013888807   -0.05455926374058
C         4.24377598257148   -1.87726734101991    0.89229494796402
C         3.97918953355265   -1.28445698957528    2.27823677525506
C         5.13465894257551   -0.32764491682032    2.61519999740770
C         5.15372044018687    0.95206172685421    1.75537468269158
C         3.78156269791917    1.64973083542235    1.65813597916419
C         2.69643613957729    0.65937364905145    1.19578258000852
C         2.76039178292917   -0.36493614730984    2.33226912650144
N         1.54274721172416   -1.16953842634421    2.34804885240257
N         6.10683637551593    1.97624675004527    2.18443787136706
C         7.35825040534377    2.06948863316209    1.67141788662704
N         7.78916971536117    1.48877295599977    0.54464137015064
S         9.38714077266336    1.92377521227683    0.32850898020507
N         9.48685664314734    2.91800381799655    1.66631930966165
N         8.30915757607524    2.90293769302559    2.26367956861083
H         0.79360666237922   -0.22050058804117   -0.65673198972939
H         1.80627133615081   -0.05082033461219   -2.09605786054656
H         1.43010585931728    1.36232123818202   -1.11295093440744
H         3.78544792021719    0.36899557392040   -0.72871675031933
H         3.35709515642445   -1.82861503287027   -1.07729237128179
H         2.22906586269996   -2.12967180780148    0.22564203785810
H         5.09120299076312   -1.33759116694446    0.44851606077236
H         4.39561351137711   -2.96430493722065    0.95669387193568
H         3.68743859109344   -2.07840391879386    2.98476805315351
H         6.14078019736687   -0.71637813711704    2.40993844230610
H         5.00205602312080   -0.06427398352195    3.67537219767626
H         5.52577198196266    0.82667578722179    0.73134161180339
H         3.85288774348488    2.46601133193394    0.92563387183705
H         3.50530509961337    2.16810175399873    2.59018686777579
H         1.73542699888786    1.19133650277574    1.24872437854075
H         2.92268900799112    0.08217968878701    3.32150349260631
H         0.80059106833339   -0.54607595990595    2.66924211614549
H         1.72857256284402   -1.95428058257869    2.97338332697736
H         5.96563453658441    2.47495142087470    3.06089619063850
