36
 energy: -51.082609925831 gnorm: 0.145708014319 xtb: 6.4.1 (79825abcba525fcdf90b791dcacef51065a7a4e7)
C         2.35885982669214    0.64982650127288   -1.25634852752908
C         3.22646411531320    0.06880388112234   -0.12297543619094
C         3.22046477873265   -1.46843153781852   -0.04230239887061
C         4.12964359465637   -1.92431056287075    1.09601585465271
C         3.81250386716538   -1.30268402821560    2.45809795024229
C         5.02092271936687   -0.52820212192111    3.00950044533015
C         5.32819093912520    0.63439862540621    2.04448349378180
C         4.11782686370424    1.51760341851358    1.67844736202857
C         2.89192796957078    0.68566447088966    1.25758266867785
C         2.62452962270381   -0.34763301708585    2.35562496806564
N         1.35746499909912   -1.04977662675079    2.17720507455977
N         6.44128092464273    1.39779735275331    2.60993306952238
C         7.27246798222858    1.87720786652020    1.65222003119303
N         7.73704558594670    1.22227336778595    0.58087699211215
S         8.99717152043442    2.13813396087746   -0.02139675863904
N         8.89708511291072    3.31064110554432    1.16324663018707
N         7.86800759463566    3.10105320411206    1.96394241222410
H         1.30335347270012    0.45054036484707   -1.04063068657373
H         2.45667510324703    0.06957133012594   -2.18096575883142
H         2.52265995000707    1.71031013385003   -1.46576062349848
H         4.20923865448200    0.37745902357924   -0.50601903707316
H         3.39715082397706   -1.81561984614874   -1.06924134415510
H         2.20041554403454   -1.75867318066859    0.24727712270374
H         5.12799259498902   -1.61783317449506    0.75587842222080
H         4.13334971888225   -3.02012274868924    1.18565117878432
H         3.69959140235635   -2.13641359203206    3.16999860797278
H         5.86214351203393   -1.22433515529818    3.12470528354965
H         4.84941428674460   -0.20605594753695    4.04763316891285
H         5.90455568472694    0.13614885314022    1.25559913162984
H         4.43426367275452    2.32415294163322    1.00220330631420
H         3.72705084161918    1.91342901325082    2.62942670997081
H         2.02718018561796    1.35823079212900    1.16170954763097
H         2.70891213869940    0.20423402846884    3.30069634803080
H         0.58580910208719   -0.43543646579736    1.91300887910592
H         1.10244055048587   -1.38530517148729    3.10660145740796
H         6.22195819221029    2.02550237659893    3.38110583328266
