36
 energy: -51.088370768286 gnorm: 0.132779890860 xtb: 6.4.1 (79825abcba525fcdf90b791dcacef51065a7a4e7)
C         1.81464874121122    0.19945652129735   -1.13125305703015
C         2.91820849773579   -0.04194314848554   -0.08304450233689
C         3.00513183287956   -1.56870726671051    0.09322970650503
C         4.07298855458478   -2.06239135756325    1.06593641978746
C         3.87116271932024   -1.28733853685141    2.37009297235117
C         5.09988478061913   -0.38703750665975    2.57948082047068
C         5.20797268766666    0.84273710524418    1.65574739999477
C         3.90688897069846    1.65516487380551    1.49401706968893
C         2.74559229985910    0.66560517253576    1.28368561790360
C         2.62999371472693   -0.39666680820538    2.38055286909990
N         1.33094964094080   -1.06047883975939    2.33439871040296
N         6.33692241899953    1.57493801354962    2.23092954172051
C         7.50479947606425    1.95891143576591    1.65948557995074
N         7.93860377835987    1.60006744107018    0.44474599141737
S         9.41668586666756    2.33873798594757    0.20165993060437
N         9.41938457513932    3.08158549195090    1.69709984992478
N         8.32567193845602    2.82062496766451    2.38972791445231
H         0.81243681389919   -0.14541413165403   -0.85380340232582
H         2.09585310609755   -0.19837434261266   -2.11300436968374
H         1.82170521831732    1.27854435988622   -1.30683524317262
H         3.86037647368702    0.29340687583024   -0.53878136938469
H         2.99871278219505   -1.89508782945779   -0.95548180411118
H         2.00681672692705   -1.78259494251607    0.50092565438075
H         5.02779650029966   -1.90086430242623    0.54769573869989
H         3.83270849444209   -3.13374117643754    1.12362224804517
H         3.76675950434229   -1.95872303059668    3.23784848161386
H         5.99810807476636   -1.01840429647573    2.58931411429893
H         5.05054167141169    0.07637493488313    3.57633941234166
H         5.53074287172253    0.57164031518170    0.64326843686683
H         4.11443362320632    2.29366708037835    0.62384432898756
H         3.72807463345531    2.35016362022428    2.32992837124965
H         1.81417861693882    1.24525054852623    1.20749058664408
H         2.77761715191351    0.11919165864317    3.33812007669841
H         0.54576260644861   -0.42121601561855    2.46665097151692
H         1.33797491847090   -1.83349270498574    3.00057791032158
H         5.99449889872565    2.15381951950564    2.99543319400650
