36
 energy: -51.097233713322 gnorm: 0.118555497377 xtb: 6.4.1 (79825abcba525fcdf90b791dcacef51065a7a4e7)
C         2.21562097473449    0.52987195057337   -1.21357773070084
C         3.11040391443556   -0.01709205288757   -0.08439528988698
C         3.11854941289845   -1.55573799036221   -0.03814308749829
C         4.09566865815226   -2.00490545272703    1.04522521757120
C         3.81491902107372   -1.29465840894386    2.37149579546754
C         5.06891711818245   -0.51014035619345    2.79121394747791
C         5.26990956189781    0.71415960789228    1.87578854864050
C         3.97112818842083    1.53083808361476    1.71698786403202
C         2.79103668254845    0.64303525768564    1.27964602700944
C         2.59039466432312   -0.38161662470758    2.39979507197827
N         1.32331729221927   -1.08260977426634    2.21699552361956
N         6.29312291875796    1.62531226857978    2.38990471372133
C         7.43629587854533    2.02314769223815    1.77932859992457
N         7.76638003297809    1.46388047141193    0.60851174666655
S         9.13506213382830    2.20307268388327    0.00043621531188
N         9.21645274321168    3.24769562643287    1.30055495192405
N         8.21483933686827    3.12075242441655    2.15184654200279
H         1.16750143475855    0.49173419139199   -0.89682266852996
H         2.35901651041303   -0.01429568501197   -2.15405645801460
H         2.43419378516142    1.57429191293031   -1.45174223082977
H         4.17014892146256    0.14857185975213   -0.32383676234584
H         3.42621734677391   -1.99150903933088   -0.99825003106925
H         2.15966241459492   -2.05075745526016    0.17182935174974
H         5.13925387329023   -1.94458624040630    0.70815830916032
H         3.90539265075722   -3.06813653974592    1.25062068858813
H         3.62082597273828   -2.11990121162696    3.07573936582523
H         5.96047046530046   -1.14920190260592    2.74368737143727
H         5.00763283883984   -0.26561199325727    3.86236426156565
H         5.60416528553789    0.48987758365551    0.85561287734970
H         4.02358489632298    2.38115573618409    1.02260422565198
H         3.77193475394677    1.89510406093687    2.73746707605463
H         1.87985420664952    1.25620113818676    1.22396840241306
H         2.59334549479338    0.14259377055587    3.36417692157570
H         0.55621001887996   -0.41005950702732    2.26045667373474
H         1.12358116698927   -1.64685224898647    3.04351257044285
H         6.23291950155968    1.91081857204364    3.36544825394223
