36
 energy: -51.091937615584 gnorm: 0.117519559040 xtb: 6.4.1 (79825abcba525fcdf90b791dcacef51065a7a4e7)
C         2.75748271019583    0.38920753209089   -1.37534336240717
C         3.44830618860515   -0.10960571110996   -0.09128439400531
C         3.10555112522283   -1.59875888830247    0.09466929597305
C         3.67689413091346   -2.23564877625940    1.35884443939039
C         3.62245499404044   -1.32417330701414    2.58706012126352
C         4.95042055092346   -0.70496039814031    3.05313524187312
C         5.52711079354840    0.29253139767872    2.02856190518188
C         4.46036776819876    1.37231063569285    1.75442585472856
C         3.18466749808542    0.71980821492837    1.18970719891064
C         2.64268957755720   -0.18845101793286    2.29705888090496
N         1.26895563496172   -0.63053368290034    2.07863234428999
N         6.76583260164624    0.92419655248903    2.48468422594615
C         7.52742187732841    1.70547003376641    1.68000161221344
N         7.05195554906651    2.12604544437035    0.50119054476351
S         8.18746388768473    3.15568741565029   -0.16206648355357
N         9.22734711741787    3.08995224629223    1.14272928755112
N         8.69827174073587    2.34318456927409    2.09481049801292
H         1.94488404123307    1.12021994226157   -1.30019616843839
H         2.23262168945960   -0.45136403945176   -1.84346865123688
H         3.45724169526762    0.73110870251412   -2.14264410271854
H         4.53388734402558   -0.02049957451370   -0.23760564327101
H         3.40193286484777   -2.25204317345519   -0.73703908766800
H         2.02016676030702   -1.75154231751529    0.17949262331818
H         4.72806331824385   -2.48666642220518    1.16299727942558
H         3.08077072124482   -3.14290963947382    1.53310637916620
H         3.23023479660967   -1.78382399657395    3.50876581453658
H         5.70869082443329   -1.47965810265833    3.22747822212437
H         4.70887666221008   -0.14953655268054    3.97187013029912
H         5.78059769936401   -0.11363485046898    1.04186991507645
H         4.84001277931575    2.09972932944214    1.02319936603243
H         4.30077789382471    1.93473773159231    2.68820976404768
H         2.40187103611542    1.46945379373258    1.00373103014118
H         2.68597420584021    0.47587729972569    3.16977415789193
H         0.57660405917462    0.09862882747661    1.90076262120617
H         0.99357783769659   -1.13800731751713    2.92007878041809
H         7.14566897325411    0.74270978879648    3.41183597276972
