36
 energy: -51.098580926436 gnorm: 0.122694143835 xtb: 6.4.1 (79825abcba525fcdf90b791dcacef51065a7a4e7)
C         1.98914587962173    0.40453514899777   -1.14084797970574
C         3.13297779218404    0.00257101265211   -0.18956859492523
C         3.07116640836197   -1.52769704876091   -0.03434006855051
C         3.88882198786897   -2.09017618127237    1.12551200711672
C         3.76832759532039   -1.29806456274129    2.42946947846202
C         5.00581300009309   -0.49740893909305    2.86733191436446
C         5.41361272815238    0.63983835802465    1.90937578852079
C         4.16037261630391    1.49923647816841    1.64510609946099
C         2.95050583455447    0.65487491874475    1.20311791888772
C         2.60344622967537   -0.31398487556615    2.33703274132384
N         1.34312323904842   -1.00107240593124    2.07285708997932
N         6.48078180778394    1.44209295100844    2.50855677897671
C         7.49436693570995    1.93475722888258    1.75500007935294
N         7.87161222322713    1.37569715949926    0.59841662687027
S         9.11739161675186    2.31661438308225    0.00498579735151
N         9.13448921264423    3.37145956881255    1.29927307526560
N         8.19004417420165    3.07126055184323    2.17216795952508
H         1.08699744983502   -0.10952736006454   -0.79126141185240
H         2.38092747723270    0.12164503345736   -2.12454574325992
H         1.87796974601757    1.49207322963376   -1.12634815940487
H         4.09845108494883    0.34750821375389   -0.58544211606106
H         3.53988304075958   -2.01344622232079   -0.90077745838825
H         2.04324983426817   -1.86146331637413    0.16711600358379
H         4.96995564905087   -2.14144468955036    0.93884616096428
H         3.54833373993115   -3.09943817726280    1.39811163761963
H         3.75456202653814   -1.98908143486606    3.28793494641742
H         5.84041954151295   -1.19299433241781    3.02582059473693
H         4.81187085642343    0.00458248074612    3.82717769549832
H         5.78649570637987    0.36180290661299    0.91617779187073
H         4.32506841439743    2.26781381492897    0.87691042390754
H         3.83734531108755    2.12521552660949    2.49218880193088
H         2.16017761942653    1.41686126272573    1.13921180856122
H         2.49588755797446    0.26636490101653    3.26248551266140
H         0.61853290157266   -0.30003646893657    1.91104315096670
H         1.04052612590709   -1.65058121083572    2.79947102137045
H         6.35265123033630    1.88416105229260    3.41684188297326
