36
 energy: -51.090667772726 gnorm: 0.120837881267 xtb: 6.4.1 (79825abcba525fcdf90b791dcacef51065a7a4e7)
C         2.05384285089977    0.19166939853095   -1.07266342961939
C         3.17247550214713    0.00665133095510   -0.02897362361735
C         3.65078557120690   -1.45543988322424    0.02711263579623
C         4.08814060517164   -1.91673533990915    1.41496254211964
C         3.68572122389705   -1.07553956894852    2.62851647966587
C         4.85877247340880   -0.14209616290438    2.97024338666774
C         5.19601420091455    0.89861040650354    1.88373068202258
C         3.86917284943015    1.66790237219164    1.72034060608283
C         2.74388280179243    0.71241001358326    1.28121153763347
C         2.40189119361499   -0.28101712330153    2.39523434281474
N         1.25289942957145   -1.15433635957257    2.17746484299715
N         6.26954532660868    1.82101376515491    2.25546056084279
C         7.42763709076605    1.98174509681131    1.56923210525441
N         7.86189841474806    1.21047270916707    0.56469069648385
S         9.31291774953445    1.82120857654474    0.00702031844317
N         9.30853607926542    3.08946919384638    1.09314464760398
N         8.24033564536673    3.07671435190531    1.86956367333904
H         1.10526299620857   -0.24732125273948   -0.74429428880956
H         2.28459555829372   -0.25727959171225   -2.04548351623548
H         1.84472644722851    1.25030323434522   -1.24837396046239
H         4.01886186952056    0.52652418447595   -0.49929112437213
H         4.41701863418400   -1.70930887858942   -0.71773548541182
H         2.73051630108071   -1.99672697779619   -0.23501275256941
H         5.16941052479330   -2.09292970363924    1.49327927244870
H         3.52504569429872   -2.84266790839610    1.60050390702574
H         3.71479836380824   -1.76719723502199    3.48608337548890
H         5.67212698986487   -0.84131465571275    3.20492131055129
H         4.62143541783626    0.47754395993975    3.84809879475981
H         5.55387328776500    0.50090897984528    0.92636024853318
H         3.92301593833482    2.51070230242585    1.01695618524612
H         3.51875036496986    2.03231689136873    2.69919283055384
H         1.91137209558914    1.41269678923688    1.12043143538143
H         2.15226199897716    0.25185607645065    3.32182433038789
H         1.59264643713618   -1.83137676151827    1.49273528612749
H         0.36438286464245   -0.72128253423889    1.92369879098928
H         6.17744648091578    2.46036224625596    3.04259129886383
