36
 energy: -51.097868675843 gnorm: 0.124322250055 xtb: 6.4.1 (79825abcba525fcdf90b791dcacef51065a7a4e7)
C         1.68012192038028    0.41243062964067   -1.08954759658245
C         2.86054236790175    0.08997013526934   -0.15280544295138
C         3.16134161910175   -1.41626998656514   -0.05083783445228
C         4.33579846189723   -1.66740181658797    0.89138517213168
C         4.10153115408600   -1.16438225747228    2.31769332982123
C         5.09296291782897   -0.08231998770571    2.77632976532978
C         5.17194494685825    1.06080267382200    1.74465907697409
C         3.74267790918419    1.62605612867529    1.61543582758934
C         2.67043430898748    0.56366683567912    1.30933083087055
C         2.72106978042305   -0.51462231460987    2.39543904056920
N         1.65284013966617   -1.50564747851326    2.31149474820087
N         6.12454805798492    2.09186304343494    2.15811036830911
C         7.37270400769443    2.08734869250168    1.62895353567959
N         7.69478406260219    1.43279313173746    0.50629200930833
S         9.29904181814915    1.79066702007867    0.21009106022340
N         9.47312227775472    2.70713874590441    1.59499026982319
N         8.36114862254403    2.81011588638073    2.29993825388804
H         0.81653797638588   -0.19860499014139   -0.80458959936027
H         2.07848714810136    0.11946524113200   -2.06763621874487
H         1.49745480180480    1.48899905135678   -1.03530177734952
H         3.72454221843937    0.63855885597091   -0.55329373582105
H         3.34358686337728   -1.89130990763214   -1.02422626188324
H         2.20005026140831   -1.83312988905807    0.28194392889319
H         5.22659296402232   -1.12220850195508    0.55142635337274
H         4.59822340116201   -2.73501002703892    0.90547204856664
H         4.15629834758483   -2.03597888905935    2.98998540446596
H         6.10033323515675   -0.50332986737271    2.89243967447574
H         4.73278858770149    0.30603928689583    3.74088374983674
H         5.52849373363203    0.75723141465703    0.75294079693482
H         3.79954898681064    2.31139075774670    0.75808959552239
H         3.46529007383572    2.31250221260269    2.43127482435443
H         1.67495073331627    1.02411658954198    1.38885651456470
H         2.58069079775122   -0.00940138271295    3.35974351193158
H         0.71351831655444   -1.15654100978943    2.11536857984137
H         1.57255586338733   -1.88138876738657    3.25688748711676
H         6.00416933247195    2.32238475408533    3.14258596061013
