36
 energy: -51.098065475141 gnorm: 0.114768612765 xtb: 6.4.1 (79825abcba525fcdf90b791dcacef51065a7a4e7)
C         0.94850195207010   -0.00925913103751   -0.60778298074962
C         2.42029567318805   -0.12279194149676   -0.16529835405027
C         2.75168930540870   -1.61610310159832    0.00743541705924
C         4.13647183248828   -1.68609027522923    0.64593322211831
C         4.18531939748548   -1.05824561289696    2.04081308948956
C         5.37800167440248   -0.08807473019034    2.06132059901791
C         5.25665416305951    1.09101915062160    1.07525548029037
C         3.81748269806200    1.64324765817503    1.12858079968410
C         2.63282100082672    0.65938207110246    1.15432620148791
C         2.91030706227024   -0.27106367308251    2.33846079981702
N         1.78774073088888   -1.18052585390023    2.54586256888176
N         6.08922876427354    2.19274658970922    1.55950370935134
C         7.44396928307661    2.15195140139822    1.52893421515217
N         8.20049133080511    1.34838467827794    0.77097487036738
S         9.80594238986924    1.70222550646544    1.06555123335564
N         9.49380717229078    2.78114288954743    2.30113981297529
N         8.18833337830916    2.95878147024017    2.39182644786943
H         0.61271005912305    1.03244581662047   -0.65715333106263
H         0.40068021658991   -0.48023365624259    0.21638646449908
H         0.71792019770352   -0.45099373241021   -1.58092842318604
H         3.11211966524513    0.31236208004774   -0.90004780450866
H         2.81170456012840   -2.03718820006851   -1.00520806048701
H         1.99908129159798   -2.23468346837865    0.51688263395809
H         4.84187186838326   -1.13864153893590    0.00637612834206
H         4.47755662594828   -2.73130610091316    0.63979853219784
H         4.36500641640345   -1.77889769794728    2.85507958959653
H         6.27302748363356   -0.71226107298674    1.93947640083859
H         5.43422569622284    0.41916918583884    3.03623359621461
H         5.48645017598915    0.77832802532270    0.04948467188838
H         3.70803548196428    2.39233261719868    0.33180387210821
H         3.79719177712650    2.22181892748169    2.06591163939926
H         1.76080867983934    1.29059407440071    1.37903000191752
H         2.94776151143040    0.38208476002886    3.21984146143452
H         0.89484619634104   -0.71431964656104    2.71336605883978
H         1.98195559894708   -1.84272736514415    3.29763664180035
H         5.63254173089155    2.84371780205031    2.19550443715481
