36
 energy: -51.086540326444 gnorm: 0.123938936706 xtb: 6.4.1 (79825abcba525fcdf90b791dcacef51065a7a4e7)
C         1.30469548421403    0.13181839708702   -0.70524748703449
C         2.73607806327310    0.10414810283862   -0.13495159930442
C         3.36478974406475   -1.30076857116540   -0.15877834879171
C         4.53513055045301   -1.61146510329700    0.77072172324476
C         4.35527155360357   -1.00133706031293    2.16272006778918
C         5.26534210566485    0.20201848369373    2.45911535545232
C         4.98163554210807    1.35180817389589    1.47179256606070
C         3.52102159767427    1.80429913787258    1.67396395849979
C         2.61963704415250    0.60495992212728    1.32587051249066
C         2.91589309826824   -0.51612696372838    2.32602007523488
N         1.92751054933764   -1.58710849290379    2.24607852072125
N         5.95152837343245    2.42987108640146    1.66818103199105
C         7.26868203962131    2.19002804370890    1.45486869822584
N         7.74608018227411    1.01882155815227    1.01564912461426
S         9.40049641354910    1.22377480713688    0.91390056483908
N         9.44268674898407    2.79626977963541    1.47394501697279
N         8.21049382648396    3.17400336157902    1.76214512196678
H         0.84514978209088   -0.86210149369566   -0.74107807176170
H         1.30229673513873    0.50204674438119   -1.73680269792119
H         0.68362033761832    0.77769666551753   -0.07881601442563
H         3.42036257804943    0.75767818379773   -0.69395908894981
H         3.76416844164556   -1.54436114653874   -1.15251907321416
H         2.63545218116019   -2.11343279385705   -0.03133989468979
H         5.47057650129023   -1.23905165996315    0.33189178244023
H         4.59204404974323   -2.70757230780169    0.70620464192178
H         4.52636420858573   -1.78794572709132    2.91546897459584
H         6.31749704496945   -0.11154932158633    2.47219281923575
H         5.00162021765964    0.51256675557791    3.48133031485552
H         5.12324482539599    1.15961717303454    0.40137341895418
H         3.21161128742698    2.59332618796302    0.97420540727885
H         3.20847324661641    2.11553648866736    2.68351355099171
H         1.61850405537520    0.96676786757745    1.60183003879950
H         2.68947249946570   -0.03810577660490    3.28782414373319
H         1.00028478552107   -1.34241545822915    2.59685480978990
H         2.10716946222329   -2.35901335599956    2.88894715237171
H         5.71044373502816    3.24844412816399    2.22373468494220
