36
 energy: -51.098298533944 gnorm: 0.118411860015 xtb: 6.4.1 (79825abcba525fcdf90b791dcacef51065a7a4e7)
C         2.41028792432490    0.59684603733445   -1.19263237689784
C         3.35210870156125    0.15079897427360   -0.05734618037868
C         3.34147827060761   -1.38830699247414   -0.03133193537278
C         4.07817428995801   -2.02188030556667    1.14598031098599
C         3.77300045966336   -1.34042351118098    2.48192581972217
C         5.00491799910834   -0.58392187320410    3.00559320173411
C         5.32711901573820    0.63088419754783    2.11242766388438
C         4.10042525611003    1.53490624715665    1.87372083276342
C         2.92410886486952    0.70714524768048    1.32311285537700
C         2.57555256007547   -0.40660709672882    2.31455965625044
N         1.31520689218566   -1.09097252656526    2.04351562928644
N         6.35309271895078    1.57553814857594    2.55569620559417
C         7.32386775518370    1.93727068670190    1.68124439073881
N         7.63607909405662    1.25934419347471    0.56971968488490
S         8.89038018036957    2.12366273362843   -0.11521382520402
N         8.99398146853118    3.28374937141622    1.08129610528076
N         8.04561173389789    3.09446040670593    1.98063246339137
H         1.38369669394862    0.28890777376185   -0.96541596471907
H         2.69427151836358    0.14066841461477   -2.14784765379712
H         2.46587753113796    1.68645782720973   -1.26309799830005
H         4.36447539065619    0.52170127803248   -0.27037526078820
H         3.82765367995707   -1.82693421092969   -0.91314877539833
H         2.29970247135941   -1.71366784759200   -0.16339429008652
H         5.13390461125059   -1.92457672861613    0.85912127559028
H         3.91627794414249   -3.10800140458102    1.20059823820048
H         3.53979427912479   -2.06457014729107    3.27934873761616
H         5.89558607595529   -1.22029139226435    3.09085744454898
H         4.77930561433037   -0.27776046495055    4.03820014738541
H         5.80020951154469    0.28887547058984    1.18398643572983
H         4.35071320807065    2.16832570145462    1.01111073252212
H         3.85085746690816    2.19564568921492    2.71922945389421
H         2.08197724534694    1.41180171806463    1.26311721318842
H         2.43948090805767    0.15323404723939    3.24885082372284
H         0.53661413565135   -0.46299751590807    1.83831572602733
H         1.08196703653439   -1.74122510454319    2.79462498656184
H         6.11469871297472    2.21621853977865    3.31036196355762
