36
 energy: -51.090140524931 gnorm: 0.129408101892 xtb: 6.4.1 (79825abcba525fcdf90b791dcacef51065a7a4e7)
C         2.07311628206636    0.44364332387200   -1.25245235461922
C         3.10852132736537   -0.00240945562437   -0.20181808077294
C         3.17544535545953   -1.51736858050892    0.06286458964008
C         4.21174445714183   -1.91028417296784    1.11257968451062
C         3.86841325065659   -1.26846432483945    2.45885446362381
C         5.01263749339252   -0.32249816408243    2.85890695995664
C         5.23614604838954    0.78060162598834    1.80509161202594
C         3.95936326786226    1.59728743923923    1.51897201931249
C         2.79500702791498    0.65301345839818    1.16584478669436
C         2.67651015270964   -0.31993586666467    2.34237808053217
N         1.47126186324191   -1.14051223611663    2.27662798711832
N         6.21859606304586    1.68057692821376    2.41033255724693
C         7.40548142426891    1.84241199574068    1.77548361023856
N         7.55308401783634    1.59533118357968    0.46792404528619
S         8.94982865735203    2.36036277394654   -0.03534799675003
N         9.37192227408756    2.87404795153419    1.49636175680816
N         8.48944904577463    2.47043456905167    2.39211763894319
H         1.08743355550294    0.05101315919950   -0.97929684462171
H         2.34997246020321    0.09963474016417   -2.25554241616557
H         2.13554121514775    1.53454378660210   -1.21572685079404
H         4.13432659438805    0.19036033464921   -0.54591044646214
H         3.45127770761459   -1.97885071512916   -0.89489949662751
H         2.16282868227967   -1.82651529213388    0.35889286450036
H         5.13818208856160   -1.48611528207015    0.70255936527773
H         4.32386017154325   -2.99474674703254    1.25478928535039
H         3.85705977701740   -2.01713524934371    3.26756931283963
H         5.89880743059853   -0.93627228609004    3.06749737417286
H         4.80544492467840    0.22488493788509    3.79076309301688
H         5.71169988656412    0.45675197131981    0.87141198309044
H         4.02962976186380    2.23062727773291    0.62348125553864
H         3.57329352344773    2.15012211850617    2.39021796226442
H         1.81878876225958    1.15508725428075    1.10068604842022
H         2.70578715797627    0.26117839008809    3.27312328874410
H         0.64516134118781   -0.54032548568084    2.27692030404331
H         1.36888023325792   -1.65709721498231    3.15072893769589
H         6.28788250067606    1.68786776746634    3.42619166794785
