36
 energy: -51.088648154662 gnorm: 0.139178288176 xtb: 6.4.1 (79825abcba525fcdf90b791dcacef51065a7a4e7)
C         2.15872590540323    0.53244874605612   -1.14578722404699
C         3.25106634992522    0.14871582179206   -0.12873242850141
C         3.37947119988080   -1.38477927514337   -0.08946601701505
C         4.26936293385237   -1.83383293838664    1.06666709181738
C         3.80773292171498   -1.26100586435563    2.40869230342715
C         4.96841072141279   -0.49910562764497    3.06935722836803
C         5.32086201242076    0.67265608367776    2.13123967254719
C         4.06804564455362    1.51585391459885    1.81741978423607
C         2.89758837879048    0.66669481450450    1.28729129603897
C         2.55859974441330   -0.38350955046429    2.34892210004236
N         1.32202449720964   -1.10895523071636    2.07523928112090
N         6.45897593318385    1.43988298535594    2.63872338686663
C         7.29838789241455    1.92492086890931    1.69107027449030
N         7.73939827444399    1.20936351263248    0.64894026434144
S         9.03132084649478    2.00339426923747   -0.05099036616708
N         8.94621784255306    3.27093926719065    1.03264121622431
N         7.95126025083561    3.14279268053931    1.89152374524448
H         1.09611021378195    0.42997481608719   -0.89943423778156
H         2.47748692409764    0.15296456531438   -2.12331680946126
H         2.37861209039417    1.58719176372568   -1.33146621458889
H         4.14286034845594    0.67570527586936   -0.49591326539989
H         3.74604176668647   -1.66042009189245   -1.08746874488815
H         2.38577775129829   -1.82945018050639    0.06362894532256
H         5.34756316422377   -1.65054332002691    0.96561382654981
H         4.12467732211309   -2.92347978664493    1.09092402998350
H         3.68761667153668   -2.11504125216771    3.09487916356229
H         5.76084835439278   -1.25233808226417    3.17039805404303
H         4.65022945086794   -0.09229417923827    4.04104543905488
H         5.65903338204337    0.21578043897211    1.19332045416538
H         4.36467978516501    2.30806666465153    1.11573070727370
H         3.73869446378179    2.10167491676846    2.69039576081552
H         2.10126329093455    1.41981184298768    1.19780975103527
H         2.51630601467978    0.07839989614920    3.34375296860701
H         0.57608127695059   -0.41712639095998    1.98801624250066
H         1.05361826449121   -1.78496310806400    2.79103670009167
H         6.05995138091746    2.19281860772348    3.19611988677762
