36
 energy: -51.091518305582 gnorm: 0.136844226033 xtb: 6.4.1 (79825abcba525fcdf90b791dcacef51065a7a4e7)
C         1.91365948819699    0.43616260603811   -1.04846704219744
C         3.02566694195978   -0.11239444466019   -0.13338034433924
C         3.06851173284058   -1.64864512577902   -0.04543122037732
C         3.98813651591148   -2.02615305979181    1.11300664663878
C         3.76392477428827   -1.24470715185406    2.40967013632012
C         4.99520746763337   -0.48045105755429    2.92347812488519
C         5.38409228663154    0.57912795817301    1.87306252985778
C         4.20606957200438    1.51339697658427    1.52894295522490
C         2.93914014003254    0.71261254214560    1.17438443742790
C         2.62904275684296   -0.22400658804623    2.34548936331906
N         1.36944478937777   -0.91560612109116    2.08976459092637
N         6.49466121983278    1.32965067385266    2.46028689983350
C         7.50345493469553    1.81087753097391    1.69303428439206
N         7.81165489875203    1.51166161881214    0.42495302750544
S         9.12915246748428    2.45460838014282    0.01936304803577
N         9.17211265061719    3.27525474259656    1.47293252469015
N         8.16514232740379    2.90951250211857    2.24512728371569
H         0.88133959880296    0.09636695703629   -0.90991243703819
H         2.18482176701284    0.04609151965351   -2.03613930241797
H         1.99541577141135    1.52567627260816   -1.08828328462299
H         3.98682154948893    0.07970853938906   -0.63048644256821
H         3.39012811454982   -2.21205924845543   -0.93170923205807
H         2.06423418389553   -2.00690605618100    0.22228629385023
H         5.01818796377098   -1.91636511611779    0.74795430066874
H         3.73445335001773   -3.06521299963297    1.36766697250777
H         3.53785358499671   -1.93160878904434    3.24136403577389
H         5.85634845510114   -1.13886563763722    3.09798382200265
H         4.84321786372884   -0.03455202765429    3.91795591910116
H         5.79101352991316    0.06488244099137    0.99399805624472
H         4.52012643020030    2.19174422936750    0.72322977467204
H         3.93092781205168    2.13219774743852    2.39792405030723
H         2.17331087347609    1.50064234313487    1.13148410661002
H         2.55698381369453    0.40111425372480    3.24486082005581
H         0.51358281079882   -0.38914992093481    2.27145233628415
H         1.31875965454924   -1.61707980632212    2.82919694221345
H         6.38725103718069    1.89706128528798    3.29893566009239
