36
 energy: -51.082255264333 gnorm: 0.128903873097 xtb: 6.4.1 (79825abcba525fcdf90b791dcacef51065a7a4e7)
C         1.23789915567012   -0.07792038733779   -0.40466766500914
C         2.71138146351716   -0.51769891939875   -0.30315982639689
C         2.84042224785541   -1.98611699737800    0.14038695532720
C         2.98675787487017   -2.10862972339152    1.65490893419026
C         4.00449958676696   -1.12123536286765    2.23068584407705
C         5.35566694316651   -1.35254447439540    1.53427649471934
C         6.02842475747883   -0.11934860728652    0.89871619807224
C         4.96772360654315    0.65695079808905    0.09169283480760
C         3.50962344200215    0.49107356387821    0.55913942859787
C         3.49446597389845    0.31089074873992    2.07973370525490
N         2.29964825986402    0.54048456194548    2.88595292433901
N         6.52945177373798    0.71301186657644    1.99307816663198
C         7.24453132235981    1.85622511256973    1.85291643171712
N         7.44099737704460    2.48120372415972    0.68529052152290
S         8.53086803880767    3.71680844118844    0.95899581631953
N         8.68239560358919    3.37136852784306    2.58561221700230
N         8.01746723850522    2.28481026737879    2.93389769893900
H         1.17309061898868    1.01485120960649   -0.44930977788481
H         0.60630553626026   -0.42871883723701    0.41947484589195
H         0.75803963303454   -0.54574460753388   -1.26848755234285
H         3.14782674368269   -0.36730220458956   -1.30052263539324
H         3.77072107168923   -2.45067336587270   -0.21329762884760
H         1.99784097583170   -2.62890436841441   -0.15197953585877
H         3.33923129029498   -3.06118416624540    2.07291029425015
H         2.02251740068391   -1.86490132940781    2.12361926987204
H         4.02466580581156   -1.37737142338483    3.30243415264710
H         5.25435156458007   -2.01314413243624    0.66314556826798
H         6.03933736803134   -1.74882836153919    2.30008763974057
H         6.85018947274397   -0.45329485941365    0.25375856293526
H         5.05793629964942    0.38575375324465   -0.96956786772751
H         5.22846458715069    1.72516885305903    0.02335647354739
H         2.96022098857486    1.41072871259503    0.31070987973544
H         4.19112117099480    1.01827207556516    2.54783709818528
H         1.44502222149140    0.62490121601595    2.33354504956832
H         2.33572944207037    1.30894045720425    3.55645139344680
H         6.53284064053714    0.33486608851911    2.93849752897681
