36
 energy: -51.092626469145 gnorm: 0.126615557204 xtb: 6.4.1 (79825abcba525fcdf90b791dcacef51065a7a4e7)
C         2.17772170074560    0.13099671215543   -1.25874403803015
C         3.20108348454129   -0.22990750890485   -0.16451468229481
C         3.00168216533352   -1.73474943728828    0.09107634673453
C         3.87914601544815   -2.13773036506497    1.27338926680632
C         3.75539669843216   -1.20385101838583    2.47954858149815
C         5.06824558923952   -0.49535336263272    2.85184142120186
C         5.32878584104469    0.63087457420914    1.83152704819077
C         4.16716962249659    1.59538851561226    1.51628903448441
C         3.00618014256250    0.68851987368348    1.06710050358465
C         2.67857419807619   -0.13234088423388    2.31760619594593
N         1.35488908467765   -0.73845087809076    2.21377698843312
N         6.48387534129194    1.30282084147764    2.42796363677340
C         7.48920972113313    1.87722810199921    1.72278303764020
N         7.53762163279912    1.83844828103395    0.38536019744130
S         8.87859257200850    2.75917944726980    0.00654265406582
N         9.35852590624638    3.05112037044283    1.57899447926526
N         8.52101703213075    2.49296851084563    2.43403058667875
H         1.17123576745310   -0.23180340302996   -1.02272505369980
H         2.43582532517499   -0.24737055317102   -2.25443558298948
H         2.03772427606669    1.21157248310064   -1.34855593647946
H         4.19126700001957   -0.06619797513697   -0.61236733051311
H         3.23450408592618   -2.23289600347050   -0.85971555720960
H         1.97312930551663   -2.01363906725074    0.36106994547435
H         4.92487524910931   -2.11774498949590    0.93816762184299
H         3.55421493882924   -3.11512794258207    1.65805322257781
H         3.42340948063726   -1.74805067659194    3.37859696807396
H         5.94362916207636   -1.15236267362982    2.76484623049039
H         5.01977982564735    0.03860944371768    3.81280326470903
H         5.69383896503686    0.19852544839458    0.89206010087180
H         4.44407868797822    2.29889241315355    0.71856472831687
H         3.74983969260815    2.21945425214927    2.32259120954427
H         2.16952566160340    1.34312108409575    0.78279009601130
H         2.66864623071612    0.50309927605918    3.21256698276492
H         0.65892597979238   -0.05106269740927    1.92086208528812
H         1.00735774400917   -1.30251651480365    2.98995121673511
H         6.53113697429092    1.20155050532656    3.44005757295096
