36
 energy: -51.092289690306 gnorm: 0.123340644805 xtb: 6.4.1 (79825abcba525fcdf90b791dcacef51065a7a4e7)
C         2.71076794203872    0.05585602011496   -1.42515411473884
C         3.37145177073636   -0.37755717386517   -0.10208612439996
C         2.94915653794506   -1.79236252119557    0.33337844349618
C         3.65873291291172   -2.21936234220837    1.61570942402459
C         3.54864801334630   -1.14915216242895    2.70419287892505
C         4.91675950400560   -0.52255631051217    3.02009099556094
C         5.44107647617066    0.37370150125871    1.88029908957416
C         4.43751313813866    1.40096664828502    1.31762574607893
C         3.12802395923861    0.63902133788456    1.04057878268144
C         2.66723336738918    0.05561679498111    2.37931460036900
N         1.24548340003211   -0.22037062032211    2.56028423346391
N         6.63917437072364    1.03870238083464    2.39392871631583
C         7.43718837240132    1.81333743955263    1.61866438582187
N         7.48646767562568    1.74760007059501    0.28232700670267
S         8.68836953504470    2.80780868890996   -0.18761051636903
N         9.06493992706496    3.25482819708764    1.37653095761594
N         8.26563344153993    2.72070217401250    2.28199210848509
H         1.73702446685269   -0.38211721706797   -1.67080812368179
H         3.37937939549011   -0.21685241777644   -2.24963561597961
H         2.44770217675094    1.11702582261233   -1.43010277847968
H         4.45016953338089   -0.34027597446124   -0.30900223438823
H         3.21267815525745   -2.53434412311851   -0.43237669492671
H         1.85493368844647   -1.72440248220018    0.41495493400970
H         4.70732995266527   -2.46138139659382    1.39617903187114
H         3.17142063613588   -3.12289054220455    2.00943026074952
H         3.11770142502611   -1.47974557440692    3.66317660258091
H         5.58982096728387   -1.35907268634385    3.24977422670858
H         4.69647203980326    0.10050563998649    3.89996604091060
H         5.86743427745716   -0.15403153220539    1.01861204883623
H         4.85463530700745    1.80079924118464    0.38269077054926
H         4.25343768837411    2.20600207782003    2.04685800301779
H         2.31854974605956    1.30385970900889    0.70581428588624
H         2.91841088659652    0.79484656613743    3.15086287750845
H         1.01372269340711   -1.14263587722929    2.18828953830577
H         0.69752455480445    0.38010260175292    1.94338268886804
H         6.46874820709475    1.61550760924747    3.21555767999693
