36
 energy: -51.084718206187 gnorm: 0.138556953349 xtb: 6.4.1 (79825abcba525fcdf90b791dcacef51065a7a4e7)
C         1.98026054295071    0.47579365165851   -1.22592861905886
C         2.98143954970701    0.03115799286983   -0.14204726010997
C         3.20407660075967   -1.49090559254636   -0.08380572695664
C         4.24678548404663   -1.75405227208255    0.99957430354159
C         3.91187852591092   -1.12898703897444    2.35581749993893
C         5.01041523354025   -0.17248571117646    2.84822525910526
C         5.16087784304771    0.99570071706933    1.85323105889705
C         3.75537792483732    1.60780648785986    1.68319905731494
C         2.63410810692575    0.65260608447092    1.23328370782432
C         2.58052872759846   -0.37974609107951    2.36300967260271
N         1.61665220668153   -1.47574752279836    2.35913429203055
N         6.20506055283716    1.94030390310014    2.25183789635958
C         7.33849785296190    2.12492076733938    1.53131232628527
N         7.83470738312417    1.22769593868681    0.67031804400111
S         9.36179165352929    1.76155060470280    0.25502959591199
N         9.36065400961555    2.98302071264947    1.39352849061623
N         8.17645971263601    3.16011533989672    1.95063056564877
H         0.98426342472200    0.10931763471900   -0.95384795333620
H         2.17226264303434   -0.17024286185215   -2.09019301233656
H         1.97612230751041    1.54823455504754   -1.43844410657895
H         3.95694362164333    0.35643249869992   -0.52989324302831
H         3.50716927500348   -1.89051891336272   -1.06094712569942
H         2.31407690899098   -1.94584275502067    0.37393840484205
H         5.23785902957866   -1.38194898523871    0.70693977081885
H         4.36428460615839   -2.83619400351521    1.15454467662120
H         3.75757871427222   -1.93056390033356    3.09630577673285
H         5.90277889391878   -0.80079497772498    2.96839326677887
H         4.76211883692691    0.22143977576630    3.84526310948750
H         5.47492975583620    0.48644061592975    0.93409383241559
H         3.85072123917115    2.39194298775812    0.91900010743927
H         3.44201933652262    1.94259582013761    2.68493156918507
H         1.68005895719925    1.19188403612102    1.32436265226160
H         2.48947838255615    0.17827500276365    3.30383902389895
H         0.70840297445267   -1.05316223749892    2.16121686756791
H         1.58720334612665   -1.92859622596917    3.27316674720801
H         5.85913398236837    2.71154990280139    2.81958598893088
