36
 energy: -51.088011046150 gnorm: 0.132654228087 xtb: 6.4.1 (79825abcba525fcdf90b791dcacef51065a7a4e7)
C         1.06941113155176   -0.29253971662163   -0.51709967582131
C         2.52242797327634    0.05696542035465   -0.14100460897586
C         3.50840303275894   -1.11518524013811   -0.29447500674905
C         4.14016314797106   -1.76880361691715    0.93184578043646
C         4.24567643276970   -0.96709652147359    2.23122938690295
C         5.32360338859805    0.12919800982637    2.21238508232550
C         5.06899516353632    1.26982410830879    1.20667193141162
C         3.60376395398809    1.70755596426542    1.40792529092387
C         2.52966631642844    0.60845236317914    1.30612435272319
C         2.85556018639851   -0.36860274235494    2.43928777174252
N         1.80582246301422   -1.35044573545525    2.69291612553841
N         6.00438528414822    2.36494624844604    1.46596541363828
C         7.34430713198543    2.23785176096888    1.30355503704831
N         8.01239850980288    1.19146340488211    0.80228383219773
S         9.65386384187196    1.35669922149446    1.06255362259954
N         9.48084599705590    2.81618559654596    1.85510305412044
N         8.20402165192128    3.14631239653228    1.92422076087485
H         0.33274066558652    0.51226031295972   -0.41731786998910
H         0.71095177395098   -1.16326568797608    0.04372484470649
H         1.05515165406500   -0.62790388475726   -1.55759813408844
H         2.90750955631211    0.83862899408036   -0.81074377892534
H         4.30370106653747   -0.73284941654712   -0.94844881087232
H         3.06053484620235   -1.88465986929832   -0.93939355116984
H         5.05266272948694   -2.31055412526148    0.64869636558549
H         3.54108136790089   -2.66474605181656    1.14919536405191
H         4.32832938132585   -1.64378212361800    3.09720974788231
H         6.29616649404437   -0.31532133652335    1.96328785355384
H         5.40405637731828    0.55368134333475    3.22443950985217
H         5.13812254127419    0.94163001690847    0.16249865645840
H         3.38430435433478    2.53847126126295    0.72281378573478
H         3.65268626721284    2.13086861186250    2.42387736494687
H         1.61017921240745    1.10222703261487    1.65261540690119
H         2.99435558986245    0.25035313385929    3.33509308092031
H         1.81811200497488   -2.08506867439999    1.98380087834403
H         0.92876859364521   -0.82889005712461    2.68063898199588
H         5.84576259049159    3.05935083530290    2.19360862835323
