36
 energy: -51.088714886997 gnorm: 0.128099554861 xtb: 6.4.1 (79825abcba525fcdf90b791dcacef51065a7a4e7)
C         2.19949929504605    0.32084482207746   -1.33243070625987
C         3.05101372268810   -0.22040558412254   -0.16760012926396
C         2.88725828824130   -1.72337340003185    0.12207005618951
C         3.75038591094449   -2.15809308000780    1.30369174056407
C         3.68997615138682   -1.25479765907105    2.53765806465159
C         5.00878503633345   -0.52482334924837    2.84101221923199
C         5.44791585550203    0.48644941922377    1.76314231798780
C         4.24965137566448    1.38962656385002    1.40614418220126
C         2.93735622475454    0.63705962334906    1.11700392175965
C         2.62865313627518   -0.16683885695177    2.38323936373419
N         1.35389640957373   -0.86229310018417    2.23616517684519
N         6.57007308992639    1.21349448598974    2.35782606040220
C         7.43643119714799    1.99513082836551    1.66761678092728
N         7.53108797758352    2.09061925651225    0.33552463394409
S         8.99375824004374    2.84184254175535    0.04276031643848
N         9.42857493303284    3.07189108170038    1.63843646229767
N         8.48845263969192    2.54577002103795    2.40224799418832
H         1.15179589512186    0.50563405189336   -1.07068015774056
H         2.06692389652254   -0.46419451592952   -2.08563581169749
H         2.72668613201718    1.12999294755406   -1.84493710246234
H         4.10288298522990   -0.11946890048109   -0.46962506812647
H         3.24092647513409   -2.33575068718671   -0.71833114213514
H         1.86844075565935   -2.09305977095218    0.30629759781395
H         4.74433526727203   -2.15702397383767    0.83637371012322
H         3.46247853442525   -3.19436335834384    1.53195878994177
H         3.53814339419173   -1.83898098494056    3.45979333120206
H         5.82622358758964   -1.15929837565712    3.20811090716451
H         4.71082254164530    0.08134671992931    3.70974064866880
H         5.87552944633775   -0.12527910104990    0.95957369701584
H         4.59125727730781    1.98376476069404    0.54692031647070
H         4.15610191542940    2.16003455732651    2.18810680727706
H         2.07961177713580    1.30322334965740    0.94430119413582
H         2.65005454668394    0.58130800273311    3.18614399407148
H         0.56283897660682   -0.21665349794853    2.24279403895254
H         1.24913715275364   -1.35244486012408    3.12508096062707
H         6.29888070039130    1.61586926978058    3.25302029348950
