36
 energy: -51.092766301622 gnorm: 0.127174768401 xtb: 6.4.1 (79825abcba525fcdf90b791dcacef51065a7a4e7)
C         2.04333631263802    0.27331533249407   -1.19886730112531
C         3.16196724341980    0.01068699705687   -0.17195430560665
C         3.35883593028586   -1.51211082871251   -0.06256315663451
C         4.40269278245983   -1.83705949726564    1.00278727259587
C         3.92778218244451   -1.21859286883000    2.31968658478449
C         4.99762421012301   -0.34455368128100    2.99469522070298
C         5.27207674364423    0.81523257234128    2.01649090407823
C         3.98164498756791    1.60952747918509    1.72857440461420
C         2.87155887781300    0.68749968597255    1.19038182817617
C         2.64876273700360   -0.38524084944964    2.26019123881395
N         1.35320696823691   -1.04868660477811    2.15217689688500
N         6.26392349333958    1.73545853643069    2.57407890513582
C         7.34385272428093    1.97975098050343    1.79177801182257
N         7.27781147925254    1.81746497963794    0.46443130714580
S         8.80602926568584    2.18761238777356   -0.09858997741825
N         9.39526854744756    2.72218025282907    1.36947150543777
N         8.49321809074236    2.56935844593623    2.32183269107802
H         1.04809767718238    0.11443868211757   -0.76921500810806
H         2.12169802529390   -0.44278368389087   -2.02484706467520
H         2.03115772989848    1.29657212547146   -1.58371360117381
H         4.08901584486515    0.35661003592983   -0.65023702357023
H         3.80910369923289   -1.75028625930183   -1.03564727794798
H         2.42759700626400   -2.06228087054100    0.13417005855820
H         5.37285094550354   -1.41114832685866    0.71345110305756
H         4.55459616828036   -2.91646793131307    1.14650709796104
H         3.77299978074576   -2.02780793850263    3.05171812292196
H         5.95966339011763   -0.75621726397662    3.32717004949816
H         4.59152939156917    0.12356907092747    3.90401417959565
H         5.66880607814135    0.35862806579427    1.10166531026115
H         4.25384245405677    2.39165360062160    1.00597651092665
H         3.66844463716051    2.18742196352311    2.61270620243684
H         1.99688972762194    1.35038906783516    1.12068656588039
H         2.63078264116841    0.07458366636858    3.25672308593194
H         0.60670915326890   -0.36615803278553    2.29204132898577
H         1.39657458365287   -1.77212005710181    2.87061813136357
H         6.29730216982806    1.82739989818737    3.58761535737372
