36
 energy: -51.097123298255 gnorm: 0.117223546548 xtb: 6.4.1 (79825abcba525fcdf90b791dcacef51065a7a4e7)
C         2.17446930311554    0.53460791754393   -1.13975991929746
C         3.23330139559178    0.06569763903449   -0.12297241477732
C         3.28779097251743   -1.47266434751791   -0.13346817579872
C         4.15966885818558   -1.91562861508671    1.03862903362686
C         3.82539151779768   -1.33667014700209    2.41533907801043
C         5.00301219398899   -0.52830272413671    2.98445656593414
C         5.33457971458589    0.66450311830418    2.06544124650811
C         4.11854407447570    1.54277798868747    1.70640790332119
C         2.91300593412251    0.69768023381183    1.25411906431621
C         2.66700300436279   -0.34277621624731    2.35040161603730
N         1.38315810642525   -0.99539401142975    2.11349577389309
N         6.36182894385722    1.54695191054895    2.61998905637742
C         7.37558573720351    1.95538962137982    1.81786911884253
N         7.81024713323836    1.14969031488404    0.84090159412718
S         8.95480761789909    1.99265690746446   -0.03593378816122
N         8.87134991514131    3.32600300098483    0.96576140360803
N         8.00821081992922    3.19242435487694    1.95631125409225
H         1.23031634396633    0.08438641279864   -0.81384795669920
H         2.41506024529896    0.33563743915615   -2.19033484209129
H         2.10771244393361    1.61112776032594   -0.96099189400727
H         4.18715382373440    0.47588072045128   -0.48318287970203
H         3.77397308554816   -1.77372644186800   -1.07120473660231
H         2.24909742845862   -1.83064262770816   -0.09391796574255
H         5.17628639828358   -1.57393723540172    0.80186254468616
H         4.21231210187894   -3.01382687504915    1.04509772176444
H         3.56621843167799   -2.16500081366825    3.09456980190626
H         5.90062979549988   -1.15672623979128    3.05440157272893
H         4.64091056131098   -0.18486754977808    3.96519483158515
H         5.75945504298852    0.20128480831803    1.16672135550838
H         4.49137998325507    2.35438769256674    1.06590537263970
H         3.80296152620422    2.14352497336689    2.57431125867281
H         1.98875749258152    1.29357372845926    1.25284954691488
H         2.71629210068819    0.25817040783545    3.26761004801270
H         0.68797950960577   -0.35328607101468    1.72997210941171
H         1.03575623857852   -1.47839333584104    2.94260258346837
H         6.13669945049333    2.06896683826779    3.46476156942698
