36
 energy: -51.081670641831 gnorm: 0.146326008813 xtb: 6.4.1 (79825abcba525fcdf90b791dcacef51065a7a4e7)
C         1.95186826333390   -0.05656763420278   -1.18183951582085
C         3.05236937437651   -0.19594543253847   -0.11210580047125
C         3.17504815590872   -1.70475183483940    0.16734017902083
C         4.01095895812549   -2.08211342326973    1.38760721629152
C         3.84221458992675   -1.08468155566373    2.53604956352470
C         5.02949667483883   -0.15478016501884    2.83569559353496
C         5.22878701834932    0.94823395378802    1.77694386828620
C         3.90461188675379    1.69012286447578    1.50276243996901
C         2.81266056748656    0.66102427968701    1.15537782906412
C         2.59251646787029   -0.21824287704745    2.38960972637558
N         1.38440136050394   -1.01889583607871    2.21725881305234
N         6.35167289807701    1.73483782461625    2.28866821405085
C         7.43797964711688    2.13834790826175    1.58507892339460
N         7.60229556150518    2.03224858150815    0.26058253604320
S         9.20852247524712    2.38855739194529   -0.02669921966316
N         9.54897252332060    2.71442555151976    1.57519776889588
N         8.54118965065212    2.44378612767591    2.38462309137483
H         1.82821274834339    0.96294491781964   -1.56347584779270
H         0.96364549507645   -0.34382970987441   -0.80490824214152
H         2.30225811457988   -0.70245298747118   -1.99138785942137
H         4.05904140888620    0.03806312562827   -0.48585386722719
H         3.51195024333037   -2.20740899330326   -0.74928082156209
H         2.12611734171991   -2.00842698191402    0.29431463844058
H         5.00620485088445   -1.97909199008062    0.93462289357364
H         3.68765612579833   -3.12109954036947    1.54520070669232
H         3.70615429394846   -1.68909672733521    3.44754650887256
H         5.93061303009243   -0.77368741956531    2.93801332510396
H         4.75282315455269    0.16977217353662    3.85010695689630
H         5.63439743899120    0.54694225936678    0.84033676488269
H         4.02454370597957    2.21428497019389    0.54420576881797
H         3.56220354048937    2.43536997978094    2.23836340127208
H         1.86065503655771    1.18100474516208    0.97473547451388
H         2.58241987170325    0.46175752505716    3.25119842733472
H         0.59379147800378   -0.48943463234280    1.84675490951535
H         1.02884538856928   -1.30106582902179    3.13123614332832
H         6.56819721311812    1.59705518342030    3.27403954734422
