36
 energy: -51.082770199682 gnorm: 0.122269617010 xtb: 6.4.1 (79825abcba525fcdf90b791dcacef51065a7a4e7)
C         0.98766749823301   -0.59415192141548   -0.28756423368616
C         2.48860479013594   -0.26275948250137   -0.17699581358710
C         3.62520948200025   -1.30029178117556   -0.21295982591519
C         3.63527653769555   -2.13344424413316    1.06608509902623
C         3.82908554905628   -1.22949150880243    2.28574585028847
C         5.16713146214482   -0.47237402418416    2.30918368996172
C         5.38099700645655    0.71806321375204    1.35292395408509
C         4.11327246217496    1.45998494276180    0.88234877272091
C         2.81796667258540    0.64116437208321    1.03659990764747
C         2.75440569337646   -0.14552297299134    2.34884437704016
N         1.38806213529352   -0.54056659434582    2.67646904883267
N         6.27662232853951    1.69404031432411    1.97485973606236
C         7.51291188414475    2.11236371721108    1.60809786682877
N         8.09298918034655    1.95259761011049    0.41204913401801
S         9.64108647769440    2.56561518136782    0.54264731300321
N         9.50691488064444    2.92264673356953    2.16828463615432
N         8.28617163012765    2.69175168350408    2.61607337690478
H         0.44261731111793    0.22749404290581    0.19009780720720
H         0.60551934210724   -1.48922796209006    0.21640261854804
H         0.74660001666844   -0.64434133947540   -1.35277639382661
H         2.71896098509584    0.37038954248208   -1.04526682865465
H         4.59644104147479   -0.83544748270889   -0.42973236163265
H         3.40506244826602   -1.97892243676153   -1.04937639864832
H         4.41794091605339   -2.86326931509929    0.81887175962695
H         2.65296241308140   -2.61660138319840    1.16841169080760
H         3.82788928943326   -1.85997419349190    3.18970764734630
H         5.91535100789902   -1.19868242584212    1.96542590507662
H         5.35262549832916   -0.17449302992159    3.35214665301234
H         6.01617394275190    0.39850033638945    0.51792842760002
H         4.25109798727171    1.85210516444339   -0.13510210309583
H         4.10468230013300    2.41311268365839    1.43481527774269
H         1.94719881566909    1.31279282079714    1.03449173000310
H         3.05432519073594    0.52574136711467    3.16388429229742
H         1.07904799302690   -1.38739661334922    2.19682806419269
H         0.81694887534261    0.23155793478491    2.33143590260429
H         6.06265973516721    1.88272792699890    2.95232609617541
