36
 energy: -51.091021247899 gnorm: 0.126971668496 xtb: 6.4.1 (79825abcba525fcdf90b791dcacef51065a7a4e7)
C         1.22860987416862    0.14826221955683   -0.16236948933093
C         2.68252998547394   -0.34713962647415   -0.28707876472818
C         2.99388456619619   -1.81444555087433    0.05891046344444
C         2.98108893879293   -2.16796091980497    1.54385606452095
C         3.92884959264134   -1.18341717538425    2.23283225306597
C         5.37883693644793   -1.39036760536464    1.76501679663173
C         6.06303301260247   -0.18856659920615    1.08320886172196
C         5.10111763886462    0.47673374624070    0.07766987882638
C         3.63121005105221    0.56531118278017    0.52889415436122
C         3.45617520843684    0.25333609172772    2.01783231910480
N         2.12040093394693    0.40422156936008    2.58636794301455
N         6.50820548141987    0.74202761126126    2.12113758521481
C         7.21748150383883    1.86307916024641    1.84168888250844
N         7.42819008915132    2.35619032787995    0.61490824455079
S         8.47618433822794    3.64218039307776    0.80827132137308
N         8.55192051106846    3.49397154162076    2.46973706661448
N         7.87886828592627    2.45141577117373    2.92153296685215
H         1.16383091494294    1.14751199397769   -0.60694388847547
H         1.00357981896981    0.25098306316808    0.90533404097281
H         0.48294227139564   -0.41358479870805   -0.73124311757764
H         2.92540372528304   -0.19486203728826   -1.34805006200040
H         3.98057419749878   -1.97843660532700   -0.39486459601351
H         2.31010056778073   -2.46894589298655   -0.50025472116963
H         3.47942199966356   -3.14151495431216    1.64474861878400
H         2.04505149267879   -2.15756807083428    2.12055223486508
H         3.89732551503528   -1.39007277165168    3.31493967606789
H         5.39150466691298   -2.26451617182822    1.10076563617829
H         6.05379376250122   -1.62915027754612    2.60067760645650
H         6.95719516797043   -0.48460538601317    0.52140571757983
H         5.19255312044535   -0.10428738928660   -0.85077744095685
H         5.41163956084725    1.51091332892032   -0.14094907551283
H         3.21331029401911    1.56230465682426    0.32717733519378
H         4.18022679041748    0.94233559783833    2.47155752236540
H         1.93225086572954    1.29407856769068    3.05050193902425
H         1.84101423489965   -0.26964895046419    3.29997574923523
H         6.55619173811397    0.52127177668846    3.11400598963815
