36
 energy: -51.092998707053 gnorm: 0.138054800033 xtb: 6.4.1 (79825abcba525fcdf90b791dcacef51065a7a4e7)
C         1.79409712696416    0.31463725073326   -1.07176803437550
C         2.90978010970350   -0.01638243595034   -0.06155196422511
C         3.20826370746769   -1.52638127515775   -0.08271572867885
C         4.25019312440321   -1.80949143051284    0.99637276252114
C         4.08405583553859   -1.13852774569924    2.36182906104243
C         5.18341999385685   -0.07798905690248    2.53732598622939
C         5.15239528617771    1.15349661137395    1.61007603385471
C         3.71121032887696    1.69705551642681    1.52918100333373
C         2.62815482118063    0.62200188187081    1.32102706137685
C         2.73510069460611   -0.42500669658363    2.43333911169759
N         1.66642260622107   -1.40429173507315    2.26240040649445
N         6.02545380231050    2.21955999164302    2.10278065022972
C         7.31818797857085    2.12724449644946    1.70499073881948
N         7.65026205959412    1.35164794179389    0.66541185804091
S         9.23632150327875    1.72739105448705    0.30115339946623
N         9.45849149080273    2.80791828785316    1.55465714706010
N         8.35774204735461    2.85896972756221    2.28252098617080
H         0.82701612410670   -0.12580570477611   -0.80510879533570
H         2.06516923381989   -0.08032595104960   -2.05751896827757
H         1.72748819979812    1.39929112865448   -1.19176246466396
H         3.83917793612980    0.34278280713356   -0.52529348793071
H         3.57186564709528   -1.80445486455357   -1.08112946258486
H         2.31542245179713   -2.02433676474043    0.32160069641841
H         5.22141887033699   -1.52021315248482    0.57286218099253
H         4.32398967995193   -2.89640963198619    1.14474883881107
H         4.12008854738379   -1.80984411366067    3.23515186921540
H         6.19341162101874   -0.47068558760844    2.36059984836013
H         5.18445730281985    0.35858239917360    3.54743347546669
H         5.44159690546642    0.88491140551613    0.58683994621890
H         3.56970173097269    2.58085779302240    0.89134931161556
H         3.53429325936009    2.05646422667226    2.55547104702688
H         1.65229681354868    1.11492925793235    1.43955804145124
H         2.64228631244566    0.10782317650812    3.38849112443497
H         0.79328047773220   -0.87911950894790    2.32935748063939
H         1.67968119981220   -2.18848894873233    2.91528128728829
H         5.94138701021576    2.55723297765494    3.05972015593393
