36
 energy: -51.093065058039 gnorm: 0.123255846180 xtb: 6.4.1 (79825abcba525fcdf90b791dcacef51065a7a4e7)
C         1.34734763024209    0.07766366205438   -0.83566833188777
C         2.72841339810441   -0.11836620852538   -0.18061970189084
C         3.00898544931688   -1.62277622204943   -0.01428660178512
C         4.11129437029427   -1.89264799284323    1.00663676220320
C         4.06053293707681   -1.04624488940529    2.28072068506483
C         5.23967098949780   -0.07677335541804    2.46484412877832
C         5.19857749665134    1.11333272012920    1.48542041659232
C         3.76013505717586    1.66671520446370    1.42487682391753
C         2.66604697066255    0.60962663970347    1.18485052461482
C         2.71089542665110   -0.33831441125239    2.38664037718781
N         1.62388145376960   -1.29311638419362    2.57911342521105
N         6.15534636055407    2.14056849530626    1.89877269496743
C         7.45780789390810    2.14768380777773    1.52265581771151
N         8.02368504397563    1.44405500809335    0.53410283842975
S         9.62846807779165    1.90256364608319    0.47170968287861
N         9.53093534351751    2.88964069041780    1.81496562476230
N         8.31287260394508    2.90583648717693    2.32496779932801
H         1.23497622775836    1.16747485834845   -0.84086907699219
H         0.45188765185024   -0.22638428624567   -0.28169433363130
H         1.32487254825906   -0.40658849230584   -1.81561943935314
H         3.47826295271923    0.32054632107725   -0.85361124760886
H         3.20514467979720   -2.06736283011990   -0.99928689831182
H         2.08306768162006   -2.11273276283445    0.31920376203641
H         5.08769769269038   -1.65825766113401    0.56164203209753
H         4.08331315365523   -2.97251911976183    1.21144880370879
H         4.15872911311109   -1.70648810844264    3.15770025518488
H         6.13339332225097   -0.71086775821071    2.39621136957929
H         5.23507259967240    0.19941587117009    3.53002543629776
H         5.49918152628117    0.68397121925475    0.52205465436336
H         3.72087812892312    2.34867057512824    0.56385638620197
H         3.63422139014579    2.23559284613794    2.35990061211581
H         1.73496693369649    1.17810939987840    1.32357027586092
H         2.81681871325871    0.31495509531959    3.26234396022986
H         1.26517833411998   -1.77609253195811    1.75404834101253
H         0.79825511386148   -0.95664188437586    3.07562179102136
H         5.90184134199113    2.66096775413976    2.73647388778499
