36
 energy: -51.092131523607 gnorm: 0.142281988480 xtb: 6.4.1 (79825abcba525fcdf90b791dcacef51065a7a4e7)
C         2.59930290522168    0.17232046797393   -1.41091781584338
C         3.39186490380284   -0.18066551988462   -0.13729878853212
C         3.04225213835072   -1.62091717561522    0.27873361581260
C         3.55765111947778   -2.18333698615662    1.60094695114814
C         3.56641941586410   -1.14977619543112    2.72963646475975
C         4.97208359588259   -0.60689029612510    3.03545699112404
C         5.53857271027785    0.25115862450958    1.88647738235945
C         4.49033866100201    1.34554525808037    1.59918365543874
C         3.18186527289412    0.68050273768540    1.13260731284487
C         2.63204917621570    0.01184850722952    2.39574083124589
N         1.29305746280442   -0.45379171099560    2.04850534596194
N         6.83179847173175    0.75485511002240    2.35052171200926
C         7.51616561184270    1.63260858822086    1.57649905852796
N         7.27184585330344    1.96998446191760    0.30408684776433
S         8.36479673977080    3.12753183197081   -0.20088256912966
N         9.10412661255756    3.26795571959681    1.28970212244153
N         8.56693891740685    2.38230885626784    2.10890928199220
H         3.08367107940993    1.10779094200248   -1.71195815452408
H         1.53854627186371    0.26609581842296   -1.15172200630467
H         2.88435070828271   -0.61163594005087   -2.11764941447377
H         4.47146111294762   -0.12648791597696   -0.33572512489845
H         3.41540798963920   -2.29148895105857   -0.50704593027379
H         1.94417703464944   -1.63915115295919    0.22877819526604
H         4.57445956796961   -2.56115720437671    1.42868247361671
H         2.90937917053670   -2.99975916677515    1.95030476667395
H         3.19079858061506   -1.58358359953211    3.67058114858862
H         5.62858207822874   -1.45961936887804    3.25314636530778
H         4.91316946871885   -0.07807789348572    3.99868045245674
H         5.70126403188420   -0.33838249200483    0.97611453843642
H         4.91930265129028    1.91933455303935    0.76568729549665
H         4.41889882095014    1.96531385457079    2.50721931476586
H         2.50385797247742    1.49362981057394    0.83519121575312
H         2.60515503856591    0.66248238742376    3.27936395135821
H         0.65472208376620    0.34301054193037    2.03117303177328
H         0.99875700333490   -1.15934128500412    2.72450945151949
H         7.04646870916051    0.87565894515653    3.33852303531265
