36
 energy: -51.096466967254 gnorm: 0.121962179783 xtb: 6.4.1 (79825abcba525fcdf90b791dcacef51065a7a4e7)
C         1.88006457537183    0.23721173438300   -1.05235917022370
C         3.07961481259553   -0.10042654692200   -0.14575080213055
C         3.24265563097455   -1.60983555477606    0.10868792734643
C         4.08536074414271   -2.02900013987810    1.31049882860788
C         3.73144647837835   -1.17628052793181    2.53110474406180
C         4.83876627466151   -0.27442034382683    3.10087152770224
C         5.32673952573054    0.69581182023237    2.00641109252519
C         4.11203015288365    1.50162492981771    1.50226749439556
C         2.87418025254143    0.63617079754487    1.20094633919573
C         2.49539326810095   -0.29581753310812    2.35542489426471
N         1.25442432470824   -0.97339318123818    1.99323785650303
N         6.50163895290847    1.48540132274339    2.37740956399937
C         7.53368738969547    1.90796504937057    1.60654219462184
N         7.58127008927016    1.89689921904788    0.26857326040491
S         9.04008655756773    2.57353447630330   -0.18250423357217
N         9.53555495109194    2.91597251479824    1.37487096594393
N         8.64416305087156    2.46874690429701    2.24057939935829
H         1.95646549692148    1.26270087762940   -1.43035089603117
H         0.93074890516135    0.07021870352569   -0.53073285018850
H         2.00265259843878   -0.45097345990467   -1.89300343350650
H         3.97017160974744    0.27038959031349   -0.67228684720431
H         3.73037456023006   -1.97529713411381   -0.80505677779579
H         2.23282787755717   -2.02744921337625    0.22886991986888
H         5.16199852194219   -2.05753293233264    1.09518608519745
H         3.82304276311102   -3.07244692438612    1.53690704779770
H         3.61930778601080   -1.83099969846055    3.41055031837999
H         5.64212242854521   -0.94711542729405    3.42893556309797
H         4.43010876083596    0.25955411612842    3.97195314393707
H         5.67803074094865    0.01706122846268    1.21984906693481
H         4.42764311038175    2.12001746662346    0.65024661961188
H         3.91901389225596    2.17204373840595    2.35492738092217
H         2.09901464527843    1.41092605811387    1.11040098253029
H         2.35269684497656    0.33832062512608    3.23992708108389
H         0.51184336173481   -0.27901966348493    2.08855434231103
H         1.14577829383551   -1.77679259034436    2.61302810043108
H         6.65142183275476    1.74421377681645    3.35075671819025
