36
 energy: -51.089305224179 gnorm: 0.132478132897 xtb: 6.4.1 (79825abcba525fcdf90b791dcacef51065a7a4e7)
C         1.13447053799579   -0.47392190549179   -0.37809382112871
C         2.55342679685734    0.03661533284927   -0.06064470401526
C         3.58797914055311   -1.04221204188598   -0.42870695811306
C         4.00243897246519   -1.87790519108121    0.77961430470816
C         4.15145467386873   -1.05064028211204    2.05855601826347
C         5.29492200215836   -0.02271957187324    2.05641767185886
C         5.02742101061840    1.21235990714006    1.17305256472540
C         3.64043014937102    1.85116676035301    1.39030031069334
C         2.59718193092440    0.71984519067392    1.32847537454070
C         2.90664216082696   -0.26220110917351    2.46193113547489
N         1.79196942696593   -1.15424854233629    2.76532557007751
N         6.01357050200391    2.25160621758745    1.47130825134814
C         7.35468672615757    2.05425543543767    1.45179999014021
N         8.08478730573227    1.03169833192449    0.98933099024315
S         9.68694485961737    1.50129751409224    1.03426929796415
N         9.37615678080538    2.91837049858279    1.86100092346991
N         8.07995564762462    3.08701655569647    2.04931580956803
H         0.33260127495120    0.27127159255485   -0.33298115747769
H         0.86638239068092   -1.20337223627858    0.39470103262086
H         1.22308388613358   -1.02214836177527   -1.31985009604395
H         2.84485278066437    0.77022813770387   -0.82531414844887
H         4.49519909075519   -0.63983564029712   -0.89924545657980
H         3.17020233371375   -1.72164231001328   -1.18530064481985
H         4.96923696065922   -2.39589044098951    0.72203370540480
H         3.34799162123142   -2.73405337628196    0.99770036192870
H         4.30200734602415   -1.71722239178501    2.92322876995332
H         6.19753390429662   -0.46001706016193    1.60966442745072
H         5.51975513141204    0.30811707546406    3.08155671071962
H         5.05065540509313    0.89979831087596    0.12207534419523
H         3.45592623581520    2.71531655236112    0.73672255686884
H         3.69035197199717    2.12201950929651    2.45702058375794
H         1.62093787224322    1.19532999610602    1.50222120363863
H         3.15640852403628    0.36977742139433    3.32393895441513
H         1.49964218016759   -1.65848827201913    1.92690242333674
H         1.02801330643427   -0.54373096431559    3.05693120932182
H         5.77576700445876    3.13484655297299    1.91870013966347
