36
 energy: -51.086184281470 gnorm: 0.129580831474 xtb: 6.4.1 (79825abcba525fcdf90b791dcacef51065a7a4e7)
C         1.66596502890564    0.11808600472729   -1.11770184381930
C         2.88229140333018   -0.03553415531537   -0.18399415166177
C         2.99299989531997   -1.55999459410747   -0.00123510442997
C         4.06175528072208   -1.97596202102328    1.00620386889207
C         3.87186253695893   -1.24805464164030    2.33900407620132
C         5.10939141865937   -0.46748040335621    2.81162358054997
C         5.33233563972633    0.74488165392960    1.88545616208142
C         4.09677530057715    1.58265956797353    1.49747012573531
C         2.84630632020082    0.75442764689405    1.14756040014381
C         2.70709834316182   -0.26096360340814    2.28532322885879
N         1.40858954299430   -0.91226617446556    2.14400104721385
N         6.40479856451160    1.56140898939453    2.45518111572718
C         7.51194633870442    1.89048713801871    1.74535578318388
N         7.75878477163892    1.58514551029918    0.46536174344396
S         9.20365284540448    2.34891855411903    0.12118350180647
N         9.36450733834416    3.07743886712220    1.61502226142297
N         8.32999643627209    2.81784638491691    2.39376503231926
H         0.71187955956509    0.14999540332412   -0.58007230605355
H         1.70030215731084   -0.72206317077385   -1.82066076573525
H         1.71082003690050    1.09876520477777   -1.59891467039427
H         3.84590491762096    0.23939415490200   -0.63532508635732
H         3.27036491565904   -2.01326498615105   -0.96247174813347
H         2.03268371694724   -1.98498948184204    0.32398656080578
H         5.08512699587507   -1.89212587224451    0.61632642963928
H         3.98077259490363   -3.06778469714163    1.10728614436788
H         3.62611467855025   -1.95828064959860    3.14513296017686
H         6.07713273628091   -0.98097543056786    2.88459875211548
H         4.79800335408054   -0.10726087350763    3.80368821115117
H         5.79288843458172    0.42467273976745    0.94304167225380
H         4.35630038856571    2.20009360521166    0.62604464765851
H         3.90425177752800    2.33036783828476    2.28335341053086
H         2.04178740866788    1.48540370778345    1.31414123221570
H         2.73679182821296    0.31761635917309    3.21763277673753
H         0.68939466603124   -0.21278065973210    2.33411953756245
H         1.50106993955314   -1.74750779267415    2.72297715305823
H         6.35318556881725    2.16395270335218    3.27438845008227
