36
 energy: -51.084061029137 gnorm: 0.136454533752 xtb: 6.4.1 (79825abcba525fcdf90b791dcacef51065a7a4e7)
C         1.83946257570853    0.64047630790484   -0.75935592169674
C         3.09300348478920    0.58335295298249    0.13520050595602
C         3.79557855032049   -0.72680718591157   -0.26418098311964
C         4.65033999573182   -1.42957758280506    0.78734024978736
C         4.17684075687065   -1.20209619991475    2.22480868605075
C         5.10119199734764   -0.21959967579710    2.96265586183138
C         5.01474872090225    1.09402501736158    2.16001664663746
C         3.56986406032967    1.61345824690486    2.30668571324805
C         2.63124950442087    0.60838126554689    1.61321572785769
C         2.72607507400637   -0.73702032490261    2.33833997892560
N         1.90569522423903   -1.86140065768012    1.89897923223130
N         6.10241714466862    2.05796049029400    2.33114793707667
C         7.17615152949492    2.02234732892902    1.50425811469743
N         7.35679372008016    1.07817444663777    0.57234963452451
S         8.89570443550979    1.40293836204237    0.01044761255031
N         9.18581462192404    2.71955418172390    0.99560197399850
N         8.14358737912641    2.99672319912971    1.75782311948454
H         2.22392523622440    0.67137624073847   -1.78481995389713
H         1.21843309349595    1.52670997198295   -0.58588200744959
H         1.19702045311917   -0.23195127979742   -0.61290566111323
H         3.67912087327685    1.50060746980799   -0.01628138424774
H         4.48113687894635   -0.54305169870779   -1.10239634408863
H         3.03771800751133   -1.46766552183742   -0.55636804739371
H         5.69014455187344   -1.07718815134373    0.75650572623410
H         4.70574667961377   -2.51432986785317    0.61676721063409
H         4.35291145280437   -2.14752000154991    2.76316704356990
H         6.14697827368089   -0.51978561828018    3.11011856369874
H         4.72917108784388   -0.09412820766056    3.99064915720094
H         5.19779197421136    0.64386900256371    1.17683689154652
H         3.40854310057804    2.62841962904027    1.91708416503421
H         3.37995432349602    1.70197083549755    3.38827959828121
H         1.57304945058322    0.90172284323155    1.67228544150285
H         2.41366031643297   -0.50213536927188    3.36404151803633
H         2.02838516211040   -2.19591084998041    0.94204851400799
H         0.94029106567488   -1.64882376496200    2.15235718415543
H         6.19441423428643    2.54065941253913    3.22297850394045
