36
 energy: -51.094072005083 gnorm: 0.127067487323 xtb: 6.4.1 (79825abcba525fcdf90b791dcacef51065a7a4e7)
C         1.18168192113519    0.21342009473497   -0.72526648812750
C         2.61892137195096    0.01036906942544   -0.20760624736343
C         2.92945693110896   -1.49651709428403   -0.15761983436721
C         4.25217897213995   -1.75464375657951    0.55930226423845
C         4.19645274761990   -1.21350462742500    1.98980141946754
C         5.32570507693005   -0.21319317158883    2.28697012546085
C         5.17903842604722    1.05886624950543    1.42809545886663
C         3.77929017474364    1.70639346667674    1.40741413307416
C         2.68553450816663    0.64107508159103    1.20524361932571
C         2.95883747766337   -0.37872645700613    2.31439320743076
N         1.77193746027034   -1.19953271628382    2.53311111780244
N         6.03711322951407    2.14609705210404    1.90044803546332
C         7.38217826024109    2.11499891904775    1.73385403885015
N         8.00651071142032    1.20772266397514    0.97253529589442
S         9.62005404494833    1.62408362987275    0.86040537644319
N         9.44070535601822    2.99928508859893    1.79036518460408
N         8.17822158716701    3.19305049918381    2.12597068564234
H         0.44210533219464   -0.22749042748648   -0.04779530828205
H         1.06892352938889   -0.18971868736364   -1.73815621163255
H         1.00142956192816    1.29148928981090   -0.74946054476245
H         3.25203408985549    0.51128826387391   -0.95331694141407
H         2.97479278411612   -1.96076394742463   -1.15199441603276
H         2.04092572498950   -2.00541533026558    0.24254492361567
H         5.10292207748214   -1.26438877665931    0.06715511712743
H         4.43647610950554   -2.83815508975402    0.58914072354125
H         4.18971385154341   -2.09654274916227    2.64923680472501
H         6.30293865602237   -0.63914708122558    2.02409452028104
H         5.36248931995743    0.08309356557812    3.34610842855052
H         5.58626049797920    0.85029274289880    0.43137334765613
H         3.51245182643565    2.39769643346700    0.59571349097609
H         3.52922190793196    2.15502314087715    2.38206422304760
H         1.69205316712621    1.09320825226825    1.33902061970050
H         3.08440712306088    0.15956616235662    3.26271324051408
H         0.97031200301681   -0.62147310713530    2.78984056129125
H         1.85260557218678   -2.00084804169478    3.15983347170668
H         5.65707340833825    2.63486632055332    2.70884015523928
