36
 energy: -51.092630819020 gnorm: 0.122224953825 xtb: 6.4.1 (79825abcba525fcdf90b791dcacef51065a7a4e7)
C         1.62052205920241    0.25199543923630   -1.02611827142718
C         2.90835008047746    0.03172333991838   -0.20890453168081
C         3.25100883763383   -1.46710474409263   -0.13316632699428
C         4.29913842786661   -1.67847832452944    0.95630413152194
C         3.90505843440191   -1.16696958393572    2.34386480819124
C         5.02972308787561   -0.19000863978709    2.72441684066545
C         5.17426047032384    1.04833906160103    1.81726970825412
C         3.77674942521825    1.68786529773204    1.68694909593629
C         2.73147496396068    0.67161392890888    1.19024785790732
C         2.59250091567714   -0.38726280545603    2.28768525375697
N         1.49977049132054   -1.34884897159222    2.18005442579262
N         6.28705893419414    1.84920167370583    2.32891292875922
C         7.47414771720401    2.01845011228809    1.69638167128710
N         7.84616317405102    1.28555652143308    0.63949050530114
S         9.33818999306277    1.89600454264686    0.20284321470536
N         9.45059639588414    3.00457990137843    1.44646523392104
N         8.39500896854265    2.91904992163126    2.23542731528802
H         0.74400366601656   -0.23221104260137   -0.58159333869811
H         1.73976115410688   -0.23327290895651   -2.00155540390450
H         1.27739308207035    1.27774592544029   -1.18551683441406
H         3.73773959253436    0.54657701305850   -0.71375595049645
H         3.60889590013797   -1.90478300275131   -1.07482225987212
H         2.39841543125058   -2.00283975356332    0.30804729045002
H         5.26185935817417   -1.25015627455110    0.64641505025810
H         4.51604663254679   -2.75090200445318    1.06452096018042
H         3.76958718169372   -1.99526417599884    3.05817034668353
H         5.93202129120525   -0.78683887121593    2.91197328919599
H         4.71848918151095    0.16320410485303    3.71904596473757
H         5.45773700568703    0.82039103152131    0.78263525549297
H         3.84692009592023    2.52178652492413    0.97448021731499
H         3.40847088558066    2.13005828140138    2.62640734764970
H         1.82531217739889    1.28941496032265    1.10952126444916
H         2.43525838229005    0.21328879577337    3.19292011488467
H         0.59383014877152   -0.94407205452094    2.42108148425825
H         1.71748952633313   -2.05119741227982    2.88765573253416
H         6.35321583877185    2.17751104937468    3.29050520167978
