36
 energy: -51.093209734149 gnorm: 0.114182486273 xtb: 6.4.1 (79825abcba525fcdf90b791dcacef51065a7a4e7)
C         1.88581386704048    0.34410520839740   -1.06487196423722
C         3.06867534146690   -0.03376416554058   -0.15223151993768
C         3.01187194911772   -1.56386356234716    0.00653291043410
C         3.94425303009798   -2.11089693437803    1.08431782111775
C         3.76594730710227   -1.34870979714965    2.39943860954946
C         5.06742146015380   -0.66381744871201    2.84802596260431
C         5.48786483485380    0.44956669849912    1.86776317903665
C         4.31755333900778    1.37985766746176    1.48836347629908
C         2.98189913301568    0.65749419296832    1.23088234750833
C         2.64430436873633   -0.31199464495202    2.36711459904525
N         1.31271042245131   -0.87943946408083    2.17961509969129
N         6.56893177961192    1.26206114259549    2.42689393715352
C         7.54592650227088    1.93510073024432    1.77083018153579
N         7.88667773831249    1.54996360566444    0.53466455202416
S         9.05184263069495    2.64068392304873    0.04255517365722
N         9.01705573863680    3.57824641620145    1.42383599098433
N         8.15312735659892    3.08038199600770    2.28974599335077
H         2.10165739271132    0.99856568781814   -1.91659720096069
H         0.96162608058777    0.71884610120080   -0.61030939669431
H         1.55441853802591   -0.58620345848780   -1.53392673932335
H         3.99775386336561    0.29862087778518   -0.63614215960631
H         3.19599657045155   -1.91206417567240   -1.01875522612460
H         1.97737295800168   -1.81008783667319    0.28542790139615
H         4.98384716466950   -2.16566489019353    0.73422196258164
H         3.69011406455339   -3.15759717550463    1.30496366858197
H         3.48697546740450   -2.11888899499949    3.13676859630415
H         5.82703364333414   -1.45643183067207    2.86468657590070
H         5.07035814242201   -0.17841708335684    3.83559405443137
H         5.92180993018336   -0.03658774873479    0.98564458259758
H         4.55204687406707    1.94530700800025    0.57554351897251
H         4.15834662766772    2.18067681610145    2.22801707666828
H         2.26188623469057    1.48835719167226    1.20692415370140
H         2.83311956582165    0.28028034970561    3.27176743065020
H         0.54443829687010   -0.21398076738763    2.27753833778825
H         1.10572476438507   -1.70476187809214    2.74299273781116
H         6.42621153080791    1.62849379748383    3.36613913556558
