36
 energy: -51.092585196812 gnorm: 0.125070717999 xtb: 6.4.1 (79825abcba525fcdf90b791dcacef51065a7a4e7)
C         2.25607806337144    0.37335961050509   -1.27132006227924
C         3.25942762703943   -0.16132766795994   -0.23100364128072
C         2.93931633284083   -1.60794774801098    0.18667568365532
C         4.00060851744966   -2.02903415437526    1.19986146788123
C         3.67307118537148   -1.27911128347037    2.49315177452861
C         4.98096549713940   -0.68788805528527    3.04452338354401
C         5.52980990198159    0.33184958783707    2.02657597657393
C         4.50645172369810    1.33609625399575    1.45803307036385
C         3.15964663601316    0.71601007814014    1.04127556765596
C         2.71445178084447   -0.11515642486076    2.24786841764787
N         1.35798025776488   -0.62809453058971    2.08303028232264
N         6.69953208350843    0.99643332265328    2.60238723016542
C         7.44399351751027    1.74274107624858    1.74990702279282
N         7.33683241870864    1.76133479160267    0.41547148416666
S         8.50947588654317    2.83958441282464   -0.08626222924295
N         9.06920400096626    3.26730526459691    1.42764977640617
N         8.38986453798633    2.58783860283154    2.33366539670713
H         1.25009772408010    0.40751617507802   -0.83867736042690
H         2.21591815187288   -0.13002106263387   -2.24403584934472
H         2.55684456307035    1.40099480363513   -1.49226095631402
H         4.29219849462064   -0.13945087667553   -0.60615954007581
H         2.93375386719140   -2.22597470047001   -0.72127422918501
H         1.92120903060283   -1.56985201652211    0.59971708971019
H         5.00203918757916   -1.87618785955539    0.77548283663768
H         3.97334725660154   -3.10836980084196    1.40757274585338
H         3.26236629285009   -1.95044629246634    3.26470058796600
H         5.76085892116704   -1.42285469650280    3.28351306001337
H         4.79633488429687   -0.18281109769231    4.00458674888454
H         5.93555809194290   -0.16665745241377    1.13795523350586
H         5.08844093308904    1.92612902351333    0.73615336102395
H         4.26144235767568    1.97727174656413    2.31978124764649
H         2.39637158379732    1.49555342990217    0.90325663706398
H         2.84205719713363    0.60190138814854    3.06907638580319
H         0.68616883937878    0.07475144033461    1.77103148096554
H         0.97374245869038   -1.17905530131331    2.85127376652586
H         6.91880189566059    1.13576732924508    3.58693293728631
