36
 energy: -51.083649978874 gnorm: 0.136551508522 xtb: 6.4.1 (79825abcba525fcdf90b791dcacef51065a7a4e7)
C         1.32386524750912    0.28943285535123   -0.80885752709433
C         2.64210624000416   -0.09425500021568   -0.10894081551166
C         2.83758570079555   -1.62106889054417   -0.12518924646613
C         3.98092988036710   -2.06875258643666    0.78175267887848
C         4.09188651745003   -1.21909032936451    2.04983290851308
C         5.29442319287542   -0.27086840766722    2.18739674374578
C         5.23031943914354    0.98425681844790    1.29416476048582
C         3.85613242633044    1.68339861821884    1.33688736570953
C         2.73455027142030    0.63095496402405    1.25630522771177
C         2.88044406252392   -0.36203918157536    2.41284323385926
N         1.60978344017240   -1.05696530021464    2.59392711615658
N         6.07887987417041    2.05783626649397    1.81267467804567
C         7.41968342004433    2.09041335923841    1.61492428537707
N         8.13954357486912    1.37845047125518    0.73887767033851
S         9.70561830502018    1.95772377336404    0.77498935447304
N         9.38541088916568    3.13617821829389    1.91379688225343
N         8.15692996031926    2.99783036297765    2.37827060785912
H         0.49572600440383   -0.12746676676863   -0.22514276587519
H         1.24520924655942   -0.39139129817580   -1.66411926177894
H         1.31883465197235    1.35950969485339   -1.03295506104964
H         3.41612981969547    0.23768752950356   -0.81501295396416
H         3.04045172045710   -1.93171292788914   -1.15897208093970
H         1.85851002374445   -2.08116183886499    0.07057144728070
H         4.98070175000357   -2.09439929633976    0.32774712446380
H         3.68572282000331   -3.10567603973225    0.99737995659741
H         4.25011845546171   -1.89375020255220    2.90683552685826
H         6.23902078230624   -0.79234423421555    1.98411333358698
H         5.20649677520985    0.07622294880501    3.22792997873551
H         5.55852018722448    0.82016820042000    0.26065283542860
H         3.69442261509921    2.26110995104095    0.41598563316038
H         3.74276087625709    2.32892245960964    2.22243317915633
H         1.76060025218911    1.12492888499386    1.38567680423271
H         3.12554300987830    0.27615065902089    3.27160851586269
H         1.09784595826489   -0.64027564819926    3.37300095262427
H         1.70317944415191   -2.02511037232924    2.90274229728262
H         5.76991955854592    2.61308971339974    2.60832575312963
