36
 energy: -51.090356446961 gnorm: 0.126717906735 xtb: 6.4.1 (79825abcba525fcdf90b791dcacef51065a7a4e7)
C         1.83829692547862    0.32317914880866   -1.08319480752001
C         3.09223206713805   -0.09988535109406   -0.29356061449070
C         3.04448413852497   -1.60289678686747    0.03554976694666
C         4.06678506407261   -2.01429392305656    1.09188942930193
C         3.80437923763257   -1.25932480179655    2.39704443942301
C         5.09268090987136   -0.62005520563512    2.94087920078792
C         5.58576033824980    0.41560536216358    1.91054340066525
C         4.45961708968163    1.32142426138893    1.37174113614614
C         3.10023928410882    0.67387793304326    1.04793048726330
C         2.70434599250770   -0.21205703722964    2.23253598625731
N         1.33615776598183   -0.72030506770416    2.22645606730566
N         6.51916938631664    1.29103173611727    2.62037181598706
C         7.39274386300910    1.97586953738289    1.84204961702793
N         7.71015665443715    1.48144253175758    0.63899578651565
S         8.91161898029798    2.47414262541166    0.03859052884279
N         9.01687868302760    3.44100212935341    1.39589423319239
N         8.10582470640195    3.09135911890409    2.28570981784820
H         0.89261754773567    0.26141765064897   -0.53345045968768
H         1.67580698282930   -0.32294606037213   -1.95342475012962
H         1.89599628466476    1.38509382712549   -1.33680365964454
H         3.96925132701567    0.04946085037366   -0.93882731720027
H         3.26304412645946   -2.06227166939600   -0.93788104304563
H         2.05828711871007   -1.87166340457914    0.44024335281265
H         5.00790894237077   -1.73274549504697    0.60062685421429
H         4.12339145422223   -3.11046222885385    1.15563369176100
H         3.44884027662425   -1.98525305177472    3.14622865314637
H         5.86197677722123   -1.39909634582787    3.02336894774433
H         4.94711000254719   -0.07591541112871    3.88620129047738
H         6.13696703886089   -0.14616656878647    1.14675602416354
H         4.84131928595459    1.87025743698140    0.49936163127479
H         4.22711332527435    1.98244406769704    2.22188250324109
H         2.42869771161873    1.53689366830792    0.93147619363294
H         2.73464497593949    0.42072283994582    3.12892270688459
H         0.64333728343204   -0.01589158831704    2.48426939479585
H         1.01513806526133   -1.54051090166117    2.74182315123046
H         6.09853843481806    1.80797730243293    3.39021620024603
