36
 energy: -51.088247943343 gnorm: 0.118917664242 xtb: 6.4.1 (79825abcba525fcdf90b791dcacef51065a7a4e7)
C         0.85296036373552   -0.87213225004638    0.55103598857798
C         2.24231546759051   -0.58109817259039   -0.04883960554805
C         3.15075768157208   -1.82369160392929   -0.03063779222560
C         3.64049888830717   -2.09864880225795    1.38878196504467
C         4.39246267416609   -0.88787420794701    1.94631247538786
C         5.55363305003602   -0.57091516399861    0.98956616811349
C         5.46079376040739    0.77630849411769    0.24546850451741
C         4.06018575142556    1.07241490881644   -0.32866794669894
C         2.93375681429313    0.63028215229113    0.62409342517419
C         3.47653141875874    0.33230695075920    2.02463231074194
N         2.49068157388820    0.27141977627421    3.09919502387401
N         5.91155434678111    1.94300406797600    1.00515035469155
C         7.16094228117445    2.23873579740276    1.44045847047351
N         8.32264970389618    1.77263920169813    0.96534029163481
S         9.56520794301736    2.22706447727539    1.98465297967931
N         8.57463876450630    3.11147678904158    2.99695620340859
N         7.32809710610010    3.04881038133719    2.56539140677322
H         0.13866877137134   -0.10674894558884    0.22805184233422
H         0.80642598622338   -0.93436253894494    1.64426189766962
H         0.38687442059854   -1.76962658866952    0.13561177208597
H         2.10284925055324   -0.31553773100385   -1.10613005097648
H         4.06470315781755   -1.68997669978211   -0.62493175985241
H         2.59760167069828   -2.67461295383860   -0.45318752705249
H         4.32108717608029   -2.96037502895866    1.36532722077983
H         2.78337002264972   -2.37161446904270    2.02097851120621
H         4.77968700889407   -0.99674684359448    2.97240257523131
H         5.76096960497722   -1.36626952530948    0.26159033542348
H         6.50858952280745   -0.46507123589346    1.52600637715106
H         6.21707913912145    0.70769405387845   -0.54580402661888
H         3.97117120708898    0.72322608334237   -1.36698583939517
H         4.02148376815921    2.15465896493023   -0.53114145283307
H         2.22558500801152    1.47049872332026    0.66716015100277
H         4.12103958111510    1.18404429536272    2.27759546512822
H         1.74905141870386   -0.40591066831822    2.91514477748806
H         2.12192082207068    1.20723033340704    3.27144088561266
H         5.33816638809730    2.22809025380503    1.79684197956020
