36
 energy: -51.097017740380 gnorm: 0.123387790123 xtb: 6.4.1 (79825abcba525fcdf90b791dcacef51065a7a4e7)
C         1.20355241728289    0.01592851110234   -0.73422259592707
C         2.61869209542137    0.09311738400777   -0.12901138399110
C         3.23591769662670   -1.31623164807544   -0.17804914079661
C         4.44152815357677   -1.55992914014891    0.72600571180442
C         4.29475805285290   -1.00131336280661    2.14328187114775
C         5.31680819541318    0.10417153034413    2.45546723626275
C         5.09100725650660    1.27795777903199    1.48153101778564
C         3.62806662693887    1.76511657992246    1.52020144453831
C         2.61366056779226    0.62254191441779    1.32634301806340
C         2.93044364725516   -0.38074033429443    2.43898656943978
N         1.92798127142527   -1.43962162456565    2.37470849085169
N         5.98950243827329    2.41066529672546    1.70771735292801
C         7.30709667175421    2.20058652337238    1.46744043514397
N         7.77927751893075    1.63581854440615    0.34912480012956
S         9.41895982164335    1.49444438146501    0.63356630698163
N         9.46643581456936    2.31787469053857    2.08541988444448
N         8.22655801833664    2.60665303810791    2.43663417986038
H         0.54882118213935   -0.62847812075378   -0.13722183189249
H         1.36581510238681   -0.49527823196403   -1.69000468817084
H         0.72009820436936    0.98249564498397   -0.89953877188918
H         3.15440885274334    0.81974649637937   -0.75579194084156
H         3.62293725012656   -1.51994289003519   -1.18556036656055
H         2.44986790450441   -2.02806936205596    0.11179518287309
H         5.42230923637866   -1.23580736462059    0.35272818285785
H         4.55003608017430   -2.65331635519650    0.76579256023665
H         4.40290375325836   -1.82359695370035    2.86909931266981
H         6.39083020661993   -0.12286556940298    2.43409800753146
H         5.08528086130506    0.46798539419375    3.46786410692114
H         5.26343557597640    0.88403431932523    0.47263038860870
H         3.36755067030621    2.48953678533793    0.73578623104377
H         3.41729009854428    2.18361729902424    2.51728515334540
H         1.60917398301623    1.03947157223013    1.48913801654823
H         2.92959556510164    0.15686342623653    3.39597090717068
H         0.94266069975871   -1.22193070826858    2.53097850331925
H         2.19444888691691   -2.27318166065183    2.89965341970952
H         5.81304221346936    2.80414742385570    2.63013651686946
