36
 energy: -51.092848683608 gnorm: 0.129112084767 xtb: 6.4.1 (79825abcba525fcdf90b791dcacef51065a7a4e7)
C         1.95905059720848    0.23280481205034   -1.06172684206933
C         3.13479578406235   -0.16783123428064   -0.14960127005190
C         2.96630613002424   -1.67880078857170    0.09168501632939
C         3.75944578860181   -2.21300683682984    1.28153946525806
C         3.65426287020885   -1.22909394361305    2.44906536486427
C         5.02259903202088   -0.65776273943340    2.85573453193082
C         5.57718348182797    0.34704429499955    1.82611769450239
C         4.50324860251712    1.38150883566608    1.43170508953732
C         3.14090727988328    0.74264063598763    1.10314598275459
C         2.64750363153833   -0.09124546476796    2.28893232206762
N         1.33438195770098   -0.68231642282138    2.05094355957893
N         6.77046781399763    0.96349908765554    2.40709626211194
C         7.50353575932925    1.85675237769434    1.69813185271069
N         7.70635143999656    1.75438038147435    0.37868757341387
S         8.92454037506387    2.83594377205912    0.01032903371043
N         8.99741521405926    3.43619998457008    1.56678397602746
N         8.20444999033644    2.82101324991012    2.42515032851876
H         0.90525264019179    0.04485843405820   -0.82821275865513
H         2.13640495376661   -0.29771654108998   -2.00420943888056
H         2.03917770615196    1.29980110876475   -1.28624409476289
H         4.02892605966052    0.05077698833381   -0.75008246820833
H         3.26729466141598   -2.16285822265044   -0.84717364170732
H         1.91611387059993   -1.81530836612297    0.38674237331543
H         4.82782063046340   -2.42737284008229    1.14389869006580
H         3.23922611691770   -3.15111852140253    1.52272513407244
H         3.28176802531324   -1.84795963392472    3.28147727870285
H         5.70882099635213   -1.51273721734739    2.91609867504427
H         5.03585622738708   -0.16551253757461    3.83982132740688
H         5.98040684008593   -0.00348460316464    0.86834523817583
H         4.85282294096582    2.02489835787993    0.61206608557356
H         4.28341055215056    2.04697072939332    2.28175049866764
H         2.51193904409311    1.63052342989619    0.94380693579187
H         2.63709324030475    0.48101634299203    3.22554621287851
H         0.65181172264591    0.07633705521895    2.01617197590366
H         1.09806964369946   -1.24378275263990    2.86966607580662
H         6.56558614998987    1.28168827318253    3.35240183813893
