36
 energy: -51.084379807331 gnorm: 0.130419734046 xtb: 6.4.1 (79825abcba525fcdf90b791dcacef51065a7a4e7)
C         1.22117697572708   -0.03187433967943   -0.41764963404955
C         2.74901974614531   -0.11720540258921   -0.23523762292348
C         3.25218601069308   -1.57100195179018   -0.18105105301618
C         3.08289874281381   -2.21362310986968    1.19320515896081
C         3.83450099688743   -1.39254993514455    2.24353734223173
C         5.35004929440658   -1.32028734394866    1.99447003373110
C         5.80412605769366   -0.03889142693659    1.26704255070455
C         4.81835843170913    0.98357023777608    0.66550396081834
C         3.32320229177682    0.72566044700514    0.93020808066779
C         3.30143389275738    0.03809543726090    2.29830273419922
N         2.01423149885902    0.07182876881912    2.98551751059407
N         6.72989823570483    0.66429307262788    2.15583812341389
C         7.52438622378385    1.66163540890313    1.69538431831852
N         8.04266004411907    1.92797139469227    0.48997781731192
S         8.77607672348747    3.42629806126118    0.57102619819170
N         8.32871443494259    3.71713240988266    2.15325646496072
N         7.68489568200823    2.67366804985679    2.64388963252943
H         0.88977152636642    1.01204931007338   -0.39050816425396
H         0.69796543464354   -0.42109952025410    0.46322173163802
H         0.84653844982821   -0.55705302537857   -1.30034027595482
H         3.10860987775168    0.43589547332260   -1.11422030995722
H         4.32174372806069   -1.51931715639760   -0.42546108248766
H         2.64020291595328   -2.13962077286835   -0.89571620989290
H         3.45628935904880   -3.24187012361773    1.29123636806967
H         2.01507272695535   -2.28301123532745    1.44576300657623
H         3.60337470248588   -1.80049574044439    3.24094278721530
H         5.78871661534747   -2.22097059359870    1.54517454598789
H         5.74321611133611   -1.15632346555893    3.00908748388499
H         6.41949316743698   -0.36998356324888    0.42176803503880
H         4.94802556221924    1.26233539802895   -0.38969120432382
H         5.07313231507710    1.90886563077877    1.20648846104302
H         2.78905499773356    1.68658967174883    0.90515723937669
H         3.92880073462926    0.61417391692802    2.99067691008721
H         1.31443507313469   -0.56733799269972    2.60549500594068
H         1.66056146910241    1.00794109204203    2.78550315590239
H         6.47904773929619    0.66044342239810    3.14269307285877
