36
 energy: -51.091817182815 gnorm: 0.119702219397 xtb: 6.4.1 (79825abcba525fcdf90b791dcacef51065a7a4e7)
C         1.71971066149624    0.17117000874718   -1.05760431242156
C         2.95074809135572   -0.04816058759176   -0.15688236437707
C         3.31214529092946   -1.54414512820865   -0.12433676946965
C         4.13582408280079   -1.94798808988552    1.09577157994944
C         3.89389902832964   -1.16963770169845    2.39111237248074
C         5.04909458178731   -0.20298740661103    2.69974408603466
C         5.26374043133586    0.96603962941686    1.71759595056051
C         3.86854156148033    1.58203333148533    1.48740846459722
C         2.70087589149742    0.61378363687302    1.22071187713642
C         2.60749952632488   -0.34579918876110    2.41041108348268
N         1.44101595488411   -1.20251019507584    2.22158722634597
N         6.25023901661481    1.85234819170152    2.33627020959877
C         7.41907434045002    2.17961210481431    1.73241347936323
N         7.56919868483846    2.14468928198029    0.40245462639900
S         9.19514125471053    2.31602834558978    0.06127233361789
N         9.63813381481735    2.44153689196203    1.66631920188910
N         8.59781347381024    2.31096966486791    2.46926823534624
H         0.86550690307649   -0.07923608216784   -0.41887467144620
H         1.69694844099900   -0.45671535377681   -1.95561476784745
H         1.64374729708561    1.18386139964096   -1.46256748146561
H         3.82458551950828    0.50242873179189   -0.53250952728121
H         3.85720613650301   -1.70933028150364   -1.06347671376153
H         2.41345423891512   -2.17291703213815   -0.19915150458366
H         5.20154955668414   -1.87165846223581    0.84135931016094
H         3.88012789652433   -2.99795131918494    1.29837776529229
H         3.82322332357082   -1.92955457172036    3.18621493089380
H         5.95461783220798   -0.79516389639129    2.88650715305911
H         4.78531391243715    0.23953846676747    3.67211412209659
H         5.75025841711256    0.61218508971453    0.80060363117036
H         3.86992575104394    2.42386635482520    0.78081403956626
H         3.69324732632704    1.96840862996470    2.50413438858643
H         1.81359791405528    1.26143744792097    1.27178251098983
H         2.54453926915531    0.35846918035046    3.24998219687273
H         0.59848643814565   -0.63095283537173    2.14327697146265
H         1.38026981745819   -1.79960077058007    3.04692792438462
H         6.35512525977870    1.78361976885950    3.34676453482988
