36
 energy: -51.088324789285 gnorm: 0.124991961969 xtb: 6.4.1 (79825abcba525fcdf90b791dcacef51065a7a4e7)
C         1.40148744285580    0.23846375999679   -0.92665586134627
C         2.71688335087293   -0.01867742435430   -0.16608297945772
C         2.85942920879939   -1.54798719796682   -0.06347107547686
C         4.12194734059514   -1.75377077712461    0.76953635310864
C         4.12458405343728   -1.18644568333655    2.19094414730383
C         5.28418797805181   -0.18259771335711    2.29934647787058
C         5.11780026196431    1.11231833515496    1.47909071198879
C         3.70695195939986    1.73560247713630    1.47290147604387
C         2.68219407441640    0.60768751782780    1.24983925016071
C         2.81984439478283   -0.41488347500323    2.38134420652195
N         1.69654688158889   -1.34450645583457    2.44688745488739
N         6.10802621615728    2.07909857255615    1.95476775246562
C         7.40538698356684    2.10894764654544    1.56248641415396
N         8.02376426434881    1.31999850455870    0.67495263314320
S         9.63283248737942    1.76623047575725    0.70999757204422
N         9.44598420158377    3.00912794773003    1.80929909692492
N         8.19204680347024    3.05615669967088    2.22096723318268
H         0.50484058662134    0.11488533003561   -0.30932644424435
H         1.27142371424496   -0.53304112687911   -1.69414824777454
H         1.37826144402545    1.27857936194072   -1.26270577291450
H         3.50436659813316    0.41996965026213   -0.79480794682931
H         3.19569726152513   -2.02476002557607   -0.99404765369592
H         1.92348589403012   -1.97406226334149    0.32520245015481
H         4.83468844645516   -1.23096691474239    0.11761700095313
H         4.47661447515717   -2.79332376754763    0.81845864480247
H         4.19127540924677   -2.03178436706816    2.89494098144102
H         6.24863559525222   -0.62279849495971    2.01370710537472
H         5.30064388916137    0.06382347553750    3.37168908470284
H         5.33659074821679    0.84116777426064    0.43918889766569
H         3.49846866300459    2.50939365502054    0.72074301655606
H         3.53272109699142    2.18187256039895    2.46498621861884
H         1.72702702753440    1.15144270471136    1.28606191284307
H         2.92226424863797    0.00369390683325    3.39086920406375
H         0.92622838626157   -0.74985570100884    2.75618697934984
H         1.83929187810444   -2.02164290917728    3.19689052343560
H         5.97894680253049    2.37412035084210    2.92075126033739
