36
 energy: -51.092756311991 gnorm: 0.116800935327 xtb: 6.4.1 (79825abcba525fcdf90b791dcacef51065a7a4e7)
C         2.73988021313251    0.59808449487731   -1.35058666323984
C         3.37132456400797   -0.11104102205722   -0.13679998393653
C         3.09236052140469   -1.60515190411304    0.10702088555007
C         3.84236244143908   -2.16541797706310    1.31275689172924
C         3.68087810213950   -1.32484226086676    2.58146493188433
C         4.99228890469707   -0.62257235286829    2.97026020383275
C         5.42628254252348    0.51136379277609    2.01991799521242
C         4.28884017128062    1.47977762386431    1.63597282696554
C         3.07400556838133    0.65114122851219    1.17813414943512
C         2.63006891406586   -0.24261743142628    2.33960658466021
N         1.33110330029224   -0.84151317135673    2.04925449946508
N         6.51830733537398    1.27013522412416    2.63084181498796
C         7.42935471933011    1.83697945733929    1.80222797640447
N         7.18113011661534    1.81391391334815    0.48678128832193
S         8.38794069402736    2.70847869096304   -0.24315964139758
N         9.18713354675995    3.06933922678514    1.17784025614958
N         8.55704257801559    2.54920313823137    2.21537829344743
H         1.83307898003865    1.14280420207033   -1.06539412910737
H         2.50567967800386    0.03446762097846   -2.26089817354847
H         3.44236240164375    1.36470498507282   -1.68840503233632
H         4.44413913455238    0.02052434910167   -0.33578655750215
H         3.51132043915143   -2.17253034411514   -0.73495036376428
H         2.02469992710383   -1.84041421949654    0.22256070118802
H         4.91346444732909   -2.27429847287375    1.09548258046130
H         3.55176950480704   -3.19892090538363    1.54999101019100
H         3.49107930069073   -1.98351869112861    3.44447046166686
H         5.70009186743795   -1.43918105135801    3.16440185208883
H         4.66773535315565   -0.16027958386030    3.91464532699266
H         5.83807483893077    0.04033387784883    1.11917073784925
H         4.72512121563647    2.15836203254216    0.88955305144621
H         3.97128214745802    2.08477557918433    2.50019496060371
H         2.26554211938110    1.37088829370969    0.98402880596753
H         2.53514517540601    0.35157363985733    3.25762838581300
H         0.68860688440627   -0.05077202459694    1.98148214108854
H         1.14331100338247   -1.33970350615686    2.91984910170958
H         6.75311039323771    1.28427851046932    3.62154407664976
