36
 energy: -51.092086886216 gnorm: 0.119585672162 xtb: 6.4.1 (79825abcba525fcdf90b791dcacef51065a7a4e7)
C         1.50984638623046    0.37189123085692   -0.98053881795826
C         2.73788680867075    0.00550205699314   -0.12465625521614
C         3.06820285062955   -1.49795981925655   -0.11321878303608
C         4.29788419275598   -1.86115610517338    0.71513664355035
C         4.18713816309786   -1.23241509006662    2.10606622933903
C         5.23812161546450   -0.13661233830505    2.34853984088285
C         5.06007004441115    1.17861656851704    1.56382153096863
C         3.61389397020374    1.71433257328685    1.53937179040361
C         2.63273842270396    0.54714351099450    1.32238928808595
C         2.86984281699164   -0.51611759960984    2.39856778185767
N         1.70696752733400   -1.38325594993402    2.56007454342363
N         6.00353579175783    2.24006602308332    1.91691901375542
C         7.31407583661213    2.20321905056635    1.57188580941715
N         7.88399468402618    1.28661040973765    0.77969347046676
S         9.51787099576946    1.62532762618797    0.70778694804116
N         9.46827890238353    2.98293474996578    1.67866994085631
N         8.21594090307345    3.14904410365821    2.06350576750213
H         0.52351548392256    0.30952489556317   -0.50767027439700
H         1.57392201921842   -0.18316130167390   -1.92340252261490
H         1.62987173239162    1.43416657923304   -1.20961193148368
H         3.59343371902555    0.48463367695751   -0.62095121413435
H         3.07970496664920   -1.91593786357164   -1.12885820253202
H         2.26202871077636   -2.08560505086203    0.34868312036811
H         5.27505214901101   -1.56513649421617    0.31036774958853
H         4.24406933184210   -2.95447989024470    0.81809158331075
H         4.20043526707853   -2.07950760698772    2.81098775724742
H         6.19680208091267   -0.51432047957129    1.96933777429358
H         5.37442658300806    0.04595150220079    3.42511049320022
H         5.31564926004267    0.89585619356258    0.53546670249157
H         3.44700012196806    2.43761312910225    0.72883356081876
H         3.46772734473363    2.18128947592591    2.52645445926840
H         1.61878147346207    0.97187421118809    1.35104499821872
H         3.00762862776527    0.00718296732696    3.35355955304153
H         0.91578172730253   -0.75350378967966    2.70186160655606
H         1.67640544955083   -1.96767062281275    3.39608889774276
H         5.90009362720339    2.55928528522944    2.87828385548854
