36
 energy: -51.089906875653 gnorm: 0.123537108116 xtb: 6.4.1 (79825abcba525fcdf90b791dcacef51065a7a4e7)
C         1.26536577433071    0.16733134916895   -0.91199554661886
C         2.60082140438392   -0.18256760815796   -0.22716849673471
C         2.85337815809516   -1.69182954963061   -0.05989504821691
C         4.12532748734326   -1.79468141207574    0.77782012181062
C         4.06169660283364   -1.10928036980502    2.14472954918620
C         5.22917288310154   -0.18865413799834    2.53663464998046
C         5.27908940727085    0.92329501459330    1.46968129268142
C         3.88039562593168    1.55753304952358    1.32680981236336
C         2.71803765824657    0.56798037277776    1.12239079119624
C         2.74023136128225   -0.36672784883196    2.33512759472712
N         1.58221205352420   -1.24627695413206    2.46033456771321
N         6.15847210223864    2.00260910716981    1.92051091862574
C         7.49042816259015    2.11945462423349    1.69654482011028
N         8.02870041259316    1.60996796919995    0.58154087156415
S         9.62819659907466    2.08998884326894    0.55617194604121
N         9.53871725917079    2.91489130826974    2.00520597753038
N         8.31406665875950    2.91105454197780    2.49943016842033
H         0.47027830956784   -0.44154656269717   -0.46764609097792
H         1.39433305392987    0.00148909038281   -1.98765567787286
H         1.07438470900450    1.23407367435789   -0.76743931554987
H         3.46892518184959    0.29255521815071   -0.70517514894228
H         2.98057390263639   -2.28597598392690   -0.97486639243461
H         1.92625728533873   -2.08524622683477    0.38086245403644
H         4.90600157851016   -1.41127732276070    0.10709523332599
H         4.37396397989146   -2.83942457720372    1.01349831974053
H         4.05910893828506   -1.99033037096455    2.80684812030243
H         6.12227241370553   -0.82524836079622    2.48518725325509
H         5.13618001183277    0.30279081932610    3.51681170744040
H         5.70659898687362    0.52477786368503    0.54166871019559
H         3.86019376836818    2.29151126587667    0.50899056822773
H         3.71257193682458    2.19216386445622    2.21158349965874
H         1.80846424624427    1.18577463580825    1.14062134608301
H         2.77507495555619    0.31684248559191    3.19323896121612
H         0.76345574239593   -0.68813190045290    2.70686753323056
H         1.70577549664654   -1.91844203157855    3.21817406327771
H         5.82890720755058    2.34391021981481    2.82146820724243
