36
 energy: -51.084409204315 gnorm: 0.134633304684 xtb: 6.4.1 (79825abcba525fcdf90b791dcacef51065a7a4e7)
C         2.19942792448312   -0.10966351841916   -1.10167522441746
C         3.37000409310470    0.06972780245744   -0.11555692425502
C         3.99567438354681   -1.30525565205202    0.18040610541506
C         3.92313090597483   -2.01611380969181    1.52933843252479
C         3.58513729067145   -1.09463004671671    2.70360111728535
C         4.82872604775801   -0.29703704298705    3.12960055734615
C         5.26588748025066    0.78388620770995    2.12073643269875
C         4.07941740679315    1.69249106481814    1.73897681907092
C         2.92952192842512    0.86041629531023    1.14108915680883
C         2.50485914192202   -0.11975472009413    2.23828051343637
N         1.27422465865080   -0.84470284552279    1.93781234393081
N         6.42379742485683    1.56882622610624    2.55038034061611
C         7.41057440799839    1.96503240220345    1.70942108240939
N         7.36866457032866    1.43640064181573    0.48005559639636
S         8.71699882028394    2.05640399661880   -0.28613123934494
N         9.28875697670656    2.93673330160348    1.01243842684156
N         8.47031786822928    2.81146707198548    2.04127619759880
H         1.17720060722691   -0.08715960943478   -0.70811746174588
H         2.35587808066994   -1.05939537162768   -1.62580658992160
H         2.20282171822006    0.68618074580154   -1.85129502867030
H         4.09840434202374    0.67418638469446   -0.67403622286850
H         5.02812692305716   -1.09551534897443   -0.13009682085481
H         3.70290502481614   -2.08986248282272   -0.53182643760042
H         4.83257683087549   -2.52442232806271    1.87697785925303
H         3.20908409580381   -2.85177069642325    1.55517093562622
H         3.18346572665396   -1.57269439552524    3.61177028034455
H         5.61595125535846   -1.01672758761613    3.39007664540193
H         4.69273676504567    0.26609855274796    4.06517423031751
H         5.58595868542388    0.23067343975319    1.22950258528283
H         4.50896394366500    2.36957026580054    0.98730269838175
H         3.73675310845310    2.27929025688217    2.60615236178594
H         2.05968157772564    1.47493152048202    0.86709153424798
H         2.26019079058464    0.51584671565311    3.09908584238936
H         1.37823177023424   -1.39804754641475    1.08595645027156
H         0.38855803418671   -0.33865606625093    1.96790890994686
H         6.59872170826598    1.71687952502803    3.54250190820894
