36
 energy: -51.091570545698 gnorm: 0.131447224237 xtb: 6.4.1 (79825abcba525fcdf90b791dcacef51065a7a4e7)
C         0.93612993902739    0.00766510963179   -0.63201564522898
C         2.41528688850032    0.09569781666885   -0.20869065632968
C         3.08838141335737   -1.28782554966271   -0.25812507657101
C         4.37821921677710   -1.48268198921969    0.53468618253767
C         4.27155600016307   -1.05339275943585    1.99981366916386
C         5.35928153809784   -0.01689445340646    2.32641360406473
C         5.15475993018631    1.22149607796288    1.43094066382627
C         3.68867142420141    1.69960456596116    1.39914214511341
C         2.59279823019714    0.63009084586284    1.23397561322103
C         2.90932147618453   -0.42792244675032    2.29478824222798
N         1.87624842098245   -1.44015544051288    2.49084062487225
N         6.03035057568837    2.35458451545353    1.73248956050770
C         7.36961208321370    2.16040382886341    1.65129188031601
N         7.95837154596064    1.09676750422117    1.09041087834737
S         9.60649670264342    1.35240646155356    1.00218474127458
N         9.50527065252718    2.83425580145240    1.76510417986294
N         8.25809701362350    3.16020032875112    2.05208751250245
H         0.39297684646232   -0.51230531426785    0.16482706192141
H         0.81347256746248   -0.49518191569819   -1.59808032359128
H         0.56521201498826    1.03431237317014   -0.69304634174409
H         3.03813247761304    0.80270743616578   -0.77440877022351
H         3.32919453097336   -1.46928187990203   -1.31427087345915
H         2.35699019852694   -2.05388829680484    0.03651321499595
H         5.26539323027811   -1.16850315171359   -0.03147326922339
H         4.49506157769572   -2.57581602315819    0.55076228814435
H         4.62143147883187   -1.88670077611913    2.63056059377240
H         6.34133984952116   -0.41958585121090    2.04547427200038
H         5.37708840935483    0.32131605162876    3.37341381124416
H         5.31177885433914    0.96107965633078    0.37722531526910
H         3.56750752149386    2.45358958334390    0.60870787313131
H         3.37158919926206    2.19134773759105    2.33262649898718
H         1.64482877873173    1.11471747922489    1.50932416181823
H         3.02685091087563    0.06278465804171    3.26958614443447
H         0.93778474641024   -1.15626195279516    2.77607160341671
H         2.29507809342807   -2.17803866708827    3.05785434921844
H         5.71395036919571    3.10266154899426    2.34657028042815
