36
 energy: -51.086326462320 gnorm: 0.141200811970 xtb: 6.4.1 (79825abcba525fcdf90b791dcacef51065a7a4e7)
C         1.76936593861208    0.22662111350882   -1.04758415558924
C         2.91617410594651    0.19724663243239   -0.01859083737287
C         3.53766454240843   -1.21079854309623   -0.04679223056006
C         4.57242888801367   -1.64197707484112    0.98932943258726
C         4.18762232541338   -1.10231441977702    2.36880504325388
C         5.13052061354158    0.04920023170982    2.75493964822659
C         5.01425717432873    1.23725206773444    1.77906687854179
C         3.59156611623319    1.82791123742543    1.85708180523987
C         2.66992807023858    0.66797974085331    1.43610685834331
C         2.79750295728175   -0.47373707376958    2.44858396787466
N         1.83402017272873   -1.52381088004618    2.13340458099339
N         5.98411523612958    2.27904235822155    2.11896172799572
C         7.21210243386024    2.13003789696261    1.56419533765180
N         7.39210432847120    1.58731931444108    0.35357428834814
S         9.04265814517087    1.51226227693589    0.10966813415602
N         9.43301400044827    2.32881013265388    1.51289376031269
N         8.35386909078190    2.57595129842307    2.23289992003206
H         1.67125202022170    1.24654820387319   -1.43548261028748
H         0.90339014847174   -0.17377327052050   -0.50818523522196
H         2.00160607731085   -0.51416132029917   -1.81739930133843
H         3.70331676169418    0.87764199401560   -0.37257502325758
H         3.85460430943021   -1.41651569500283   -1.07809768100306
H         2.65870151766608   -1.86901011760122    0.00591913479870
H         5.52983388971092   -1.13879911063256    0.79825300439727
H         4.56806478771101   -2.73476981116042    0.86834358506480
H         4.24714509974050   -1.93495478228653    3.08840482656487
H         6.14165912998246   -0.37869831127140    2.76018725130395
H         5.01372379614938    0.33297992522218    3.81169906210420
H         5.28079973846327    0.94065486601727    0.75741484780327
H         3.59347027304868    2.65897536231265    1.13785357784679
H         3.32154656927358    2.29286698181470    2.81866962093602
H         1.67127204757685    1.12510676268961    1.49130571341118
H         2.62147184812626   -0.12192336318540    3.47331697613047
H         0.86655727077778   -1.21798330183530    2.24808379641042
H         1.98855508869678   -2.41197487799932    2.61160766040709
H         5.85018367844476    2.85625771805667    2.94703675840750
