36
 energy: -51.095977290463 gnorm: 0.131716386701 xtb: 6.4.1 (79825abcba525fcdf90b791dcacef51065a7a4e7)
C         1.55628687844556    0.19949489200766   -0.97303566561830
C         2.80604908555040    0.12578759605369   -0.07441406279382
C         3.23013588030987   -1.35393502083952   -0.08884726768988
C         4.45063749955618   -1.59644143747069    0.79532848371371
C         4.16032870164627   -1.07092078836750    2.20309754447706
C         5.17425815168229    0.01108752288331    2.60972788067552
C         5.06143325140066    1.19469882315534    1.62807270853397
C         3.61730379278875    1.73329122575557    1.68657703238402
C         2.56436535455469    0.65784021031869    1.35976905304461
C         2.76007423356199   -0.48157574699020    2.36392636274634
N         1.72304507864432   -1.50329087757259    2.25923218729304
N         6.09385715353034    2.12898197286385    2.07829048321751
C         7.34356903542321    2.12211701443803    1.55284429501619
N         7.78610902231070    1.09218501512494    0.82076104162138
S         9.38506466458706    1.48418215451316    0.53945912189466
N         9.45265211104893    2.86865467556969    1.47050048877535
N         8.27187121832703    3.04737492844909    2.03428849093910
H         0.75847604489757   -0.44074496705546   -0.58069190392779
H         1.80249103777165   -0.15019770847309   -1.98213404145543
H         1.18608512673432    1.20653957224365   -1.18308598660354
H         3.55217883207313    0.69620610802735   -0.64515862577929
H         3.50379491507356   -1.66828468639933   -1.10504426338040
H         2.42258710666448   -2.04433337949063    0.19366302011137
H         5.26060474625470   -1.02261285670721    0.32522590325391
H         4.68185462389122   -2.66822455632013    0.71364500375099
H         4.32660753836739   -1.96323182331168    2.82822886999784
H         6.20152772867703   -0.35086162331648    2.74842120671824
H         4.81623812772387    0.38621252354086    3.58030285799136
H         5.34995255582797    0.85423582103614    0.62625972107931
H         3.57067647736669    2.55792427653822    0.96147932949798
H         3.52467493181181    2.15779108082221    2.69898273532007
H         1.57898380697971    1.12432498588809    1.50378662534500
H         2.60630633879145   -0.04358470248606    3.35859056887824
H         0.83632118738103   -1.00042534043262    2.19995912032560
H         1.72290606073464   -2.07342901651439    3.10559913124358
H         5.90897871131441    2.83144969077129    2.79186076728025
