36
 energy: -51.081518735428 gnorm: 0.138348935800 xtb: 6.4.1 (79825abcba525fcdf90b791dcacef51065a7a4e7)
C         2.28700061256211    0.02088111982453   -1.29347344552570
C         3.24198966945192   -0.25385132550913   -0.11560373318377
C         3.37780583449064   -1.75336806119646    0.20477169509292
C         3.93155365896953   -2.10029872964292    1.58433783373300
C         3.63200368659199   -1.06495799737011    2.67089395845871
C         4.87420220486567   -0.21534910796844    2.98593469999829
C         5.26462851539500    0.80938857912213    1.90205649082936
C         4.02286806967109    1.66521723748370    1.57863308174716
C         2.97362690955041    0.63286618184864    1.12539813034996
C         2.46543962938012   -0.13188524885914    2.35087903845430
N         1.17064618905298   -0.80202432374758    2.28220838002627
N         6.43390614114495    1.50929446212938    2.43534977191564
C         7.42980806819087    2.01659253433964    1.66805021209960
N         7.51313015546579    1.83223209984005    0.34456386729011
S         8.99416703568447    2.36251839392038   -0.21648681607493
N         9.44230103379775    2.89911494590970    1.29989384564831
N         8.55521875552824    2.61653091195785    2.23652218963674
H         1.59284019984352   -0.79760460959677   -1.51384869184253
H         2.86837230981969    0.12003363704735   -2.21724649850809
H         1.79749955630249    0.98523755738292   -1.13311500472123
H         4.22614665159006    0.04306943094092   -0.50433154011309
H         4.02443596173944   -2.10609644322314   -0.60997578914937
H         2.36705409768921   -2.14737163552785    0.02661707436201
H         5.01814261316308   -2.25924109353868    1.60394315037402
H         3.35517150838699   -3.00314513039954    1.83233901214338
H         3.47588229454684   -1.69926157600921    3.55855485395386
H         5.66825259060923   -0.95525312313320    3.15192214015010
H         4.73852895402267    0.27772746348603    3.96029661130007
H         5.51385684526975    0.30982674719878    0.95806977823510
H         4.38064704694822    2.32552969353980    0.77617305109489
H         3.75348057618174    2.34002842266639    2.40676698147681
H         2.07320538769757    1.20331056633253    0.85491676176532
H         2.42643300978565    0.61003128893750    3.15888641174227
H         0.92701054434910   -1.38344115252682    1.47892609390110
H         0.46504226062248   -0.08203779529331    2.44075492507698
H         6.48473569138282    1.84521108143719    3.39524552824500
