36
 energy: -51.092547010992 gnorm: 0.127353843498 xtb: 6.4.1 (79825abcba525fcdf90b791dcacef51065a7a4e7)
C         2.34575651028729    0.32363805820770   -1.26728329649965
C         3.32272918919879   -0.07992343313225   -0.14589059515106
C         3.02733331442970   -1.57871896064936    0.04382007457361
C         3.81685881500102   -2.07660580088108    1.25169359820100
C         3.64262642056137   -1.24440258529551    2.52422874139651
C         4.96517323812471   -0.65161060002504    3.03765902611137
C         5.53277807709094    0.34798697033805    2.01006891092617
C         4.43764732850037    1.38079420117196    1.67389593868997
C         3.13444228892351    0.75125908899629    1.14718937121430
C         2.61159081848547   -0.14541821411093    2.27302180193690
N         1.29321341465939   -0.72507361783357    2.03601393313426
N         6.73370376029399    1.00125213411684    2.53208643215030
C         7.47341650605973    1.80617194973219    1.73030730235983
N         7.53000256234081    1.63884538528582    0.40314969836793
S         8.60404661262848    2.78137893172851   -0.17173998071636
N         8.96740070171727    3.39458956187955    1.33826557634139
N         8.42656274279815    2.65816095554686    2.29178986770250
H         1.39255527894324    0.47810894981444   -0.74970337100230
H         2.46511274606745   -0.32763397004395   -2.14065593143560
H         2.62399581428879    1.29399513227137   -1.68716362718318
H         4.36595345082396    0.08659047261223   -0.44886330607166
H         3.38283876644860   -2.11500200685589   -0.84633590087871
H         1.94340306112301   -1.74094841857161    0.12969069257547
H         4.88685152683522   -2.12287180389807    1.00818251413742
H         3.45626010370019   -3.08799081904130    1.48817086469625
H         3.26100084537957   -1.83933427334176    3.36984980482405
H         5.59787249495335   -1.52468322109623    3.24493092013993
H         4.87870701536151   -0.10032354050678    3.98608879903582
H         5.87839884721589   -0.11581738636528    1.07828594094910
H         4.85185767463511    2.06938050042030    0.92406986931318
H         4.06608403361871    1.88053038141641    2.58271385007436
H         2.54141968689237    1.63269059716046    0.86306166555192
H         2.57612900161448    0.46567055061739    3.18414778191665
H         0.67935473814258    0.08743194021306    2.11137003477716
H         1.03009931869393   -1.33412127262014    2.81140186041866
H         6.55106857425229    1.26748668807448    3.49779189882651
