36
 energy: -51.099507091249 gnorm: 0.114261918433 xtb: 6.4.1 (79825abcba525fcdf90b791dcacef51065a7a4e7)
C         2.11890137500889    0.37076138483739   -1.26935376825930
C         3.08275774510054   -0.03535854150017   -0.13758230359302
C         3.12977441705171   -1.57208127015232   -0.06070799367343
C         3.99557493874890   -1.99684907519978    1.12257646252371
C         3.75690833278530   -1.32963067741825    2.47908770739467
C         4.95731976718565   -0.45199458157168    2.87012533146094
C         5.27166689787498    0.70634154954327    1.90226411953947
C         3.99702754057963    1.51312813955353    1.58069862568846
C         2.80553129252133    0.59512842700875    1.24950238452787
C         2.57989750669627   -0.35707005718930    2.42734365877712
N         1.35873115229511   -1.15206581737461    2.34351858337231
N         6.32720684820394    1.61888783733025    2.34337052648569
C         7.38349508822436    2.05709566085662    1.61525674195210
N         7.68776462603182    1.74770622928640    0.34866853389578
S         9.20605443933357    2.35343609593434    0.00612066680839
N         9.40578577757602    3.07259903981562    1.49980145794576
N         8.34191358882598    2.84978806275062    2.24984985513366
H         1.11929505821000    0.01724943809931   -0.99338393227757
H         2.47446749823227   -0.05861377632857   -2.21295889881141
H         2.10050268074526    1.46140905949622   -1.34323614765281
H         4.08319861113563    0.32047631313589   -0.42101814535974
H         3.51526800603618   -2.02541434409350   -0.98387923269201
H         2.10095122441661   -1.94778413301000    0.03398721177734
H         5.03175135077663   -1.74256842014829    0.86180373530345
H         3.84314843813126   -3.08218591151041    1.21011345269068
H         3.57540391328323   -2.06002638917912    3.28421817235087
H         5.83132359732886   -1.09008008588802    3.05584018057687
H         4.83640001592879   -0.02972803183317    3.87907640333291
H         5.60589040998473    0.35784318100070    0.91756555687732
H         4.32869877706014    2.22344716644396    0.81037302043182
H         3.72613346043917    2.16695613546675    2.42501545177501
H         1.85093716770252    1.14074780706320    1.23012537555871
H         2.54018681750660    0.29324378341180    3.31071933666174
H         0.58604007299372   -0.51560752797288    2.14218391446246
H         1.18145492031055   -1.47800508781844    3.29416639071603
H         6.37279424181358    1.83930743907024    3.33642666175808
