36
 energy: -51.088093998907 gnorm: 0.120188305071 xtb: 6.4.1 (79825abcba525fcdf90b791dcacef51065a7a4e7)
C         1.47029829082109    0.34417704279286   -0.94497865014129
C         2.66198928614260   -0.03019227448708   -0.04243819760034
C         2.91305942769819   -1.54817760754008   -0.09061712526730
C         4.03558211266216   -1.97542320376060    0.85151041021626
C         4.15523723822165   -1.22839510641465    2.18188497675826
C         5.33756715822954   -0.24939483417516    2.27018854173152
C         5.08623619248139    0.96986906125535    1.36049612733967
C         3.70082731727483    1.64184483498211    1.45052509097603
C         2.59630076413812    0.57058476271527    1.38343841983832
C         2.91595170623696   -0.40230165082468    2.52195404628140
N         1.74444793732138   -1.10858115981997    3.03091404084102
N         6.03998777067367    2.04963847780530    1.61727632110465
C         7.38644947573545    2.09218493499372    1.46512092444443
N         8.15898536284467    1.18205102487349    0.85899221775489
S         9.69386290404009    1.83229763303754    0.75515605939122
N         9.32758283646770    3.14957607909296    1.71368965773937
N         8.05404878575567    3.16296205344828    2.06293627100268
H         1.35789260716056    1.42455663747830   -1.08811394432172
H         0.55170984586492   -0.11298373990357   -0.55977712956400
H         1.62748598255887    0.00034675406662   -1.97083547069653
H         3.59304989551284    0.31258287730821   -0.51516174326863
H         3.26124083106965   -1.94539646290139   -1.05360631777467
H         1.99291552147188   -2.10480772675598    0.13762629730573
H         5.02632796296424   -1.86037740060559    0.39160854938480
H         3.82765636473629   -3.03060108018161    1.08002544087513
H         4.19760399946657   -1.89834534802314    3.05597222132061
H         6.19775289471474   -0.74752605682126    1.80385005766852
H         5.54327521260983    0.05417775222904    3.30770516564418
H         5.21897101972880    0.66403546526637    0.31568275719977
H         3.56405056251468    2.30964378348630    0.58837827723482
H         3.58258095986198    2.18817447617114    2.39988658732038
H         1.57591180211250    0.93571400153354    1.57002052044743
H         3.26405766218333    0.28362233188677    3.30500456866009
H         1.56423987662735   -2.01661519333309    2.60002479559289
H         0.93761526741151   -0.50966955651370    2.85281169070534
H         5.65628751250147    2.91786971627821    1.98574900054763
