36
 energy: -51.084744320864 gnorm: 0.132172249396 xtb: 6.4.1 (79825abcba525fcdf90b791dcacef51065a7a4e7)
C         1.35783929218434   -0.42287797136472   -0.67586262411664
C         2.68929361589714    0.08304727980784   -0.08753602337084
C         3.70090832270905   -1.06593125906980   -0.24915595381298
C         4.50034817932408   -1.58152852062183    0.94468479835144
C         4.10725495175954   -0.93128228489510    2.27318864694337
C         5.09329863908557    0.21981254428214    2.53172631384320
C         4.98670374953299    1.36958702407262    1.50997866851190
C         3.53466986610899    1.88896743165157    1.53923740602012
C         2.54725925087796    0.72885784365031    1.31286650641172
C         2.69146721805182   -0.36614783901918    2.37355933592551
N         1.73714518880506   -1.45530290908049    2.55605012054904
N         6.01683551017478    2.37753203797413    1.76366273366632
C         7.32154745095640    2.23161770277315    1.42549651338264
N         7.78474309559782    1.11293822560823    0.85404792449175
S         9.45076576859395    1.14520674420409    0.74100429492241
N         9.49712274486324    2.62793504255870    1.50751461883309
N         8.31631217046337    3.12501684106308    1.82788539937441
H         0.58299755990441    0.35137114276191   -0.69825546483167
H         0.98406438852188   -1.19151514221961    0.01019142943240
H         1.50066109003991   -0.82560764860201   -1.68220263324339
H         2.95028002532727    0.94498352862707   -0.71744733086501
H         4.41242001958660   -0.77303956046723   -1.03294603250657
H         3.04230592109773   -1.85681361672605   -0.63560771855310
H         5.52800328131684   -1.32367314237947    0.65527466002415
H         4.44967561082323   -2.67520644351103    1.04544944655741
H         4.31210434001693   -1.59895952434742    3.12577334361121
H         6.13716870540466   -0.09795011906461    2.40970990863893
H         4.97315686844899    0.58621926726770    3.56236930199828
H         5.24029990661805    1.00512115412905    0.50716195726311
H         3.42121662912258    2.68143127971472    0.78618369787393
H         3.49328013107388    2.16301949792438    2.60550562863435
H         1.58439543383920    1.25479179097257    1.38778439508870
H         2.69438087116704    0.18593004696533    3.32226326775095
H         1.71833031167822   -2.03629615789536    1.71655077220697
H         0.77831506683583   -1.15975404936477    2.74230316541779
H         5.77736532546286    3.09231155496101    2.44818283845567
