36
 energy: -51.082314284989 gnorm: 0.130746033874 xtb: 6.4.1 (79825abcba525fcdf90b791dcacef51065a7a4e7)
C         1.27822855985611    0.10786607243582   -0.82219673866305
C         2.66182333865442    0.00098719908986   -0.15204641486018
C         2.97388327737250   -1.50586127423970   -0.11126484695931
C         4.17054589060741   -1.84400649442184    0.77409194629727
C         4.00383738740423   -1.20783900529142    2.15603405051135
C         5.17862379640792   -0.27724622565103    2.49957013235441
C         5.28561669982350    0.91197008709435    1.52405536267888
C         3.89058295860210    1.56928288806952    1.49515685376405
C         2.66634045877181    0.66881638831530    1.24522087381935
C         2.73751601063774   -0.37806514793662    2.36051257858549
N         1.45447780258491   -1.06982319360822    2.28584100965554
N         6.18839168602271    1.93383941334390    2.05533736558167
C         7.44272626005012    2.10978526842934    1.57200677766355
N         8.08471251437935    1.30845770821762    0.71277732660175
S         9.64544753619894    1.89741172211156    0.63097858843259
N         9.39655461776172    3.18212158466792    1.66815896661437
N         8.14937817018304    3.19099990597575    2.10234031933520
H         0.68296241616269   -0.59149934477079   -0.22479482050613
H         1.31949843611520   -0.24514775313669   -1.85895078668345
H         0.93316971765304    1.14528690388727   -0.82083226511990
H         3.52563742583094    0.46158043995411   -0.65156146214487
H         3.38731293902822   -1.69098081802292   -1.11184865671366
H         2.12456166406589   -2.16424400735910    0.12064443374304
H         5.05465790229174   -1.44655443146585    0.25766151450430
H         4.34656798873639   -2.92844488759430    0.81724466572091
H         4.13158982785654   -1.96601442573136    2.94565807981324
H         6.07851809587443   -0.90202289845761    2.42628885187145
H         5.02231235614115    0.08076127220748    3.52831219225994
H         5.66944705244001    0.74471566192419    0.51040458393095
H         3.95827317112816    2.41269985462216    0.79371100160669
H         3.60813553125985    2.04693179884710    2.44690287350218
H         1.75211340095135    1.26504169065639    1.37949716790125
H         2.92598456362469    0.20727326380150    3.26974088155118
H         0.71187898580984   -0.45360112185392    2.61973268125248
H         1.59641889733782   -1.88212673138567    2.88701502775057
H         6.18940342229120    1.95111053232457    3.07343568513414
