36
 energy: -51.084095746525 gnorm: 0.120235944523 xtb: 6.4.1 (79825abcba525fcdf90b791dcacef51065a7a4e7)
C         0.78112207176900   -0.88314887841048    0.46914328541383
C         2.23038368778170   -0.66355059604831   -0.00654193947010
C         3.23453012197446   -1.82375222757960    0.11698539902101
C         3.78022219588451   -2.04256264120588    1.52572328810108
C         4.48278857174002   -0.76557968141312    1.99260638097220
C         5.64730856677026   -0.38221423043332    1.06466932551432
C         5.48499317747249    0.89812773429094    0.22105203973144
C         4.04775098318949    1.06900407688148   -0.31200568035659
C         2.89336919179936    0.60079187608647    0.59367508623251
C         3.50578658992149    0.40885596376708    1.98400168563933
N         2.47903424699856    0.10720457492775    2.97651273181939
N         5.89660432414735    2.13993866861936    0.87676692988946
C         7.12121896255841    2.17611399323378    1.45722448212292
N         8.22761240385901    1.55266832126534    1.03324745782092
S         9.50413963786013    2.13557224214533    1.93887039889058
N         8.55535259735043    3.09316837028010    2.92425512599701
N         7.28721712430451    3.00931962933584    2.56530781270615
H         0.50078521142146   -0.04658594970680    1.11869430729685
H         0.68154553397331   -1.78186287227917    1.08848050505462
H         0.11097142495896   -0.95071817416399   -0.39204307795977
H         2.14147010621287   -0.53646844248126   -1.09455880970986
H         4.08769371289158   -1.52539974926355   -0.50708109007610
H         2.86050150833788   -2.77373276873221   -0.29073573648089
H         4.43543565885477   -2.92258019314392    1.47486054480940
H         2.95466227296613   -2.45160594695641    2.12571242556101
H         4.82606541632098   -0.76291069763278    3.03989366716856
H         5.80386044920124   -1.20998475901721    0.36052924947455
H         6.59123500323801   -0.44466533914929    1.62682196544470
H         6.11470783516079    0.82362477406551   -0.67376440054864
H         3.90237406415861    0.56899740761415   -1.27989994874376
H         3.95927397589312    2.15931454688647   -0.44292712344369
H         2.16792440318940    1.41464709613296    0.73753408209007
H         4.02729592629919    1.32425634766615    2.29207264930261
H         1.65487617847781   -0.33538596400893    2.56719208939636
H         2.17397695391062    0.92958221893767    3.49807727367534
H         5.29313943817701    2.60137354919062    1.55480194890242
