36
 energy: -51.087061394347 gnorm: 0.133338220466 xtb: 6.4.1 (79825abcba525fcdf90b791dcacef51065a7a4e7)
C         1.49427580339636   -0.47767327031470   -0.66389716517912
C         2.81740585756989    0.14589550328346   -0.17877047899234
C         3.99604340905251   -0.84324827644834   -0.13354904181408
C         4.01429704219547   -1.78329949064752    1.06901936534695
C         3.86197621810870   -1.09962639785997    2.42977439757711
C         5.03576407060222   -0.13733345056427    2.67545183731403
C         5.19684723185819    1.03020099928028    1.68135552910554
C         3.82616889940333    1.70998997878300    1.48605521161836
C         2.66063482171648    0.73224542872662    1.24600624649139
C         2.57348036306631   -0.27971447906923    2.39197469591640
N         1.38972121487865   -1.13344008855263    2.37936828128271
N         6.13749352395592    2.09024922916540    2.04599565267268
C         7.41150285214066    2.08158818091645    1.58258890581961
N         7.82250396198700    1.20319339670378    0.65952437162748
S         9.43185588593978    1.54802398080876    0.37574642756105
N         9.46808221316139    2.84766412706515    1.42350278997886
N         8.29402779096723    3.08876573442021    1.97803645905254
H         0.62800416424865    0.03783453753423   -0.23474921684486
H         1.39925361857401   -1.49443551546642   -0.26596973315093
H         1.39368971869539   -0.44839915451666   -1.75216869007715
H         3.13295078288388    1.00454689943050   -0.78785616732304
H         4.88847461331093   -0.20950213580894   -0.22461858766283
H         3.90664802292357   -1.53613367661953   -0.98238073353078
H         4.97196151858167   -2.31804643646037    1.12600218018660
H         3.13410015753947   -2.42958507060512    0.94087501848977
H         3.86435909216717   -1.79720316812516    3.28302566578258
H         5.94242236760451   -0.75567402866750    2.64151896211540
H         4.91385469371683    0.32928191737588    3.66455297258182
H         5.65077997767629    0.61615336865889    0.77289677788521
H         3.95761082549560    2.49846753307342    0.73174322074594
H         3.62867509662760    2.19061670094824    2.45751785720295
H         1.76722447763220    1.35738487181876    1.10337214642269
H         2.35410339831240    0.22330216146695    3.34259846321076
H         1.49902831288935   -1.68994971921374    1.53024209503235
H         0.47802412101022   -0.67653074240229    2.34146369664772
H         5.98802119085813    2.74373772740121    2.81243826350453
