36
 energy: -51.097945573662 gnorm: 0.114868473580 xtb: 6.4.1 (79825abcba525fcdf90b791dcacef51065a7a4e7)
C         1.92188111175311    0.50095432951219   -1.12925331153951
C         3.00790444250702   -0.05901685079590   -0.19018744274745
C         2.92658214331812   -1.58994854750402   -0.05136471969844
C         4.08705897432827   -1.91730774100591    0.88476015687853
C         3.95468355080052   -1.28761616114258    2.27336741021116
C         5.16113958564909   -0.47440839095982    2.77066014064164
C         5.30898746178670    0.78979252435530    1.90045957551244
C         4.00290847795953    1.53490429149695    1.55697667713241
C         2.83232209963830    0.59968305254067    1.20037267953582
C         2.72016449747918   -0.39204014150415    2.36175475357577
N         1.48402222636751   -1.16679688636928    2.31707378046441
N         6.34743590600249    1.62131607918695    2.51010990701852
C         7.35806910123113    2.11573682250401    1.75374408700399
N         7.67636229844407    1.54147870891016    0.58692597973540
S         9.18731331641511    2.11309630753807    0.16297786123695
N         9.30629337255647    3.20260122810627    1.42273697413449
N         8.25039921499720    3.08901570742081    2.20773837971655
H         0.93277266500497    0.23881227670309   -0.73773211106816
H         2.02437339744282    0.18949017097671   -2.17503834593614
H         1.94635359523207    1.58979422835467   -1.22484740259103
H         4.01338253584945    0.25673561719287   -0.50187703339600
H         2.97894209731591   -2.13607006570253   -1.00287458490485
H         1.93331370843633   -1.86026536954972    0.33456739822402
H         4.97674433078831   -1.59190714916152    0.32897510317513
H         4.17977465380350   -2.99800651611960    1.06461163928299
H         3.93767296132534   -2.07711151405479    3.04217461593767
H         5.99843183088557   -1.17893530615071    2.68060844992316
H         5.07145007571179   -0.27683122647837    3.84947055761545
H         5.74966692247738    0.40085045390513    0.97454739003135
H         4.24674485633476    2.20456062676947    0.72027801891411
H         3.71451551589966    2.16626718056053    2.41252090183888
H         1.93081231358978    1.22944445999855    1.19781207117022
H         2.68206880183515    0.17957902796589    3.29804414552118
H         0.63138854044148   -0.61849898297730    2.43975834933507
H         1.45598693771380   -1.79918208734886    3.11750959661942
H         6.03980572908527    2.30620215818133    3.19794579978867
