36
 energy: -51.090327646691 gnorm: 0.130632562974 xtb: 6.4.1 (79825abcba525fcdf90b791dcacef51065a7a4e7)
C         2.52073533751122    0.38994264729085   -1.21842522173526
C         3.48923144509103    0.02246398450893   -0.07744592843080
C         3.34814809636576   -1.50947616797541   -0.02367169683493
C         3.99619291187908   -2.08588267551955    1.23251047803203
C         3.63448069752762   -1.32175914460928    2.50826289131468
C         4.87732245823690   -0.62742536662961    3.08911397671110
C         5.43538873065028    0.41207100078969    2.09648046547725
C         4.44487862078765    1.52567952414396    1.69926498107498
C         3.18156556347761    0.77267840710106    1.24198276706570
C         2.67534388325601   -0.14180230838401    2.36107483337784
N         1.34310639456930   -0.56592111203625    1.94207774370328
N         6.61782025420412    1.06405549734520    2.66061878917647
C         7.32128020224161    1.77240558440099    1.74339206484390
N         7.18899203905967    1.70704693619825    0.41268716484724
S         8.39709128545838    2.65159738960667   -0.24895648274265
N         9.07990218250868    3.06145806352904    1.21867894772676
N         8.37065223095041    2.56351261872259    2.21520099780468
H         1.48152187783932    0.11204461852563   -1.01069733262613
H         2.75337551862970   -0.14676202595748   -2.14525182386643
H         2.51567507326446    1.44358687273588   -1.51017455283179
H         4.54646336779973    0.30721292912112   -0.17239259337512
H         3.81124290929711   -2.05063397025233   -0.85976540448549
H         2.28807514092288   -1.80050850340011   -0.03560613893019
H         5.08222246272885   -2.21234217729216    1.12824945490066
H         3.61197995082850   -3.10950082168823    1.34843651750855
H         3.18323769350817   -1.99269029042244    3.25718737202956
H         5.69538480615383   -1.33754580957197    3.26807965421924
H         4.52757803735700   -0.10600262609831    3.99283407340673
H         5.70907977951111   -0.08060010800724    1.15565313021831
H         4.83052752606592    2.15392051183462    0.88406648274385
H         4.17030424391046    2.04966518493951    2.62866986975059
H         2.38913868249833    1.49869230642586    1.00898215896122
H         2.55659820779452    0.40783564431166    3.30374927765374
H         0.63203845462216    0.09384746937630    2.26106690554190
H         1.05362411089241   -1.44026351762139    2.38153179606694
H         6.63261741756368    1.55728341579050    3.55130995355548
