36
 energy: -51.085011342355 gnorm: 0.139141633588 xtb: 6.4.1 (79825abcba525fcdf90b791dcacef51065a7a4e7)
C         1.61279592853283    0.42886271989156   -0.93752741921990
C         2.88510965706879    0.10956882125489   -0.12874547742702
C         3.19005534919944   -1.39867021004793   -0.17187299844935
C         4.21830635164448   -1.92555000373178    0.82577311595719
C         4.19160431427408   -1.19855830803084    2.17226292733905
C         5.31544340166968   -0.16566643018260    2.35736584954258
C         5.07791379263810    1.14353643658604    1.57834115100369
C         3.64275308701145    1.70862084669784    1.58111907935845
C         2.64146973119640    0.56537200193380    1.33113641168598
C         2.87666982885171   -0.46731435924270    2.43709402587811
N         1.82509044484439   -1.47941404717279    2.44836726979516
N         5.97091752222171    2.18702348355132    2.08347406469556
C         7.20860609391967    2.24109069051550    1.53290676713789
N         7.72065148685718    1.23685560811978    0.81050184686341
S         9.37440545240502    1.45466631663231    0.72619298925505
N         9.37959723830717    2.86017631330509    1.62768339146231
N         8.13610874053699    3.22440511163494    1.88285998545996
H         0.72543776646341   -0.11072709000765   -0.58855587326450
H         1.82665083069043    0.38578077792641   -2.01158092870454
H         1.24810155660453    1.43912271727279   -0.73336523325172
H         3.72125932684615    0.66360745186970   -0.57789033348411
H         3.43042665092712   -1.61896223860010   -1.22070774651157
H         2.27037117481894   -1.94630564653600    0.07887266394973
H         5.20616422384565   -1.70218318463771    0.40084175388177
H         4.19764103589261   -3.01582255142332    0.96624114417812
H         4.36273832823924   -1.89985032785836    3.00506506201819
H         6.32499781855546   -0.46995683937785    2.05120740714065
H         5.39202715419744    0.24036152780607    3.37726245096747
H         5.45427369236284    0.99926710014265    0.55837680307784
H         3.49297237990366    2.49479784599171    0.82782505886655
H         3.48687552287621    2.14808528956258    2.57927673225545
H         1.67279569230386    1.04711315143352    1.52842278823971
H         2.92060451465188    0.10056831529149    3.37539917296790
H         0.91051521355506   -1.02539058138841    2.43936017892058
H         1.96130601048964   -2.15431934120670    3.20158879546713
H         5.71589722169121    3.16831562003766    2.17756912083298
