36
 energy: -51.087910348216 gnorm: 0.130425485635 xtb: 6.4.1 (79825abcba525fcdf90b791dcacef51065a7a4e7)
C         0.79703882615700   -0.87335458401742    0.58879591705610
C         2.19070083824129   -0.56562776657966    0.00753035337140
C         2.97450432484565   -1.89046132384692   -0.00272806475191
C         3.62501607083573   -2.10645910135067    1.36122936673682
C         4.39907860983126   -0.89741237511298    1.89160495796647
C         5.65598649701380   -0.46212299002812    1.12034037215058
C         5.57200385764740    0.86109660011972    0.33335302445550
C         4.17145583076726    0.99458255345929   -0.29883474244301
C         2.96398731389521    0.64301629587304    0.59026528335392
C         3.50713527459594    0.33902849311954    1.98936660868498
N         2.44349513689487    0.26339767256952    2.98598183724844
N         5.94514787131863    2.12406764549315    0.97143456862616
C         7.18782619087175    2.21630942246723    1.50544096087340
N         8.29330551343381    1.62401176708471    1.03677634930466
S         9.56272151860352    2.25015478170175    1.92333126900356
N         8.61653893213432    3.18989324919444    2.92821951471111
N         7.35164119684216    3.12300194611581    2.55458779992061
H         0.05953367657233   -0.06328306365360    0.60339563312057
H         0.91784137519823   -1.35759656252523    1.56455070891928
H         0.34299289091973   -1.64465163320622   -0.03909948771982
H         2.02313530708278   -0.31216956750975   -1.04865004629003
H         3.76896062971894   -1.71881973214622   -0.74147003761256
H         2.32327207351760   -2.72395163063726   -0.30237368065808
H         4.28292204880174   -2.97678402022886    1.23467133937017
H         2.87273422493744   -2.49352728894659    2.06344223309258
H         4.62407510627906   -1.11466809345556    2.94840836059076
H         5.75854803046508   -1.20170642457218    0.31534139432578
H         6.57795071487147   -0.42926974421961    1.72018669373794
H         6.33079380303273    0.85083430457640   -0.45842997466978
H         4.13154157600711    0.49490608662390   -1.27694047269495
H         4.03606709426927    2.07712818305271   -0.45216593247831
H         2.33592807982741    1.54461822649801    0.63478009304052
H         4.05002910273362    1.22893758412086    2.33311912498926
H         2.27969960392303   -0.72126219173897    3.20111504995954
H         1.60400125018149    0.76000687165879    2.68594206866176
H         5.27740799644496    2.48604134517251    1.64961011218869
