36
 energy: -51.082823790784 gnorm: 0.131903517413 xtb: 6.4.1 (79825abcba525fcdf90b791dcacef51065a7a4e7)
C         1.10335762545045   -0.09652709870510   -0.22576680136083
C         2.63863927063752   -0.03394097857109   -0.34346265954747
C         3.36061920198396   -1.39213938571869   -0.28280834791359
C         3.31846519454763   -2.19425251744698    1.01528171904966
C         3.76946632516992   -1.35714367911866    2.21449461619413
C         5.27429863478952   -1.04429351754008    2.25629836890971
C         5.74708029006060    0.12808153537987    1.37350382749707
C         4.67681628089780    1.07120415536089    0.78692986625398
C         3.19474045919211    0.67301811077641    0.91722462304711
C         3.03449439655884   -0.01915532060654    2.27373470421430
N         1.73560247788898   -0.24748012005394    2.89906632817335
N         6.62470524769049    0.90415547496339    2.25040964618401
C         7.52517561016993    1.79946364111720    1.77554436491111
N         7.78699122680029    2.03677813790361    0.48415678698637
S         8.88610895066319    3.29359321966621    0.44163911976243
N         8.99749150739839    3.46425524416128    2.09893772058137
N         8.13557980195041    2.65824381411979    2.69180798416433
H         0.65529977755876    0.64739325153031   -0.89372600276758
H         0.74582244886835   -0.03141105174317    0.80821067357431
H         0.81133899341128   -1.07391432770095   -0.61914801172950
H         2.91417581076111    0.47089442796054   -1.27997588297483
H         4.41116795802637   -1.16052035090026   -0.50430603949696
H         3.09015222215849   -2.01580181274589   -1.14680472608076
H         3.98198424411695   -3.04640251857423    0.81551826462884
H         2.35305664850232   -2.63498824609399    1.30266810295275
H         3.47695066537417   -1.90661787660420    3.12398318805411
H         5.71751284111984   -1.97217463192593    1.87143008818575
H         5.63409305321542   -0.96501766152951    3.29320538900664
H         6.30383679277758   -0.37120197707513    0.57130319404946
H         4.86108820620012    1.11872823301808   -0.29554218699418
H         4.79637371016873    2.10884486828749    1.13729149780537
H         2.58045957191286    1.58167525721735    0.99676730865176
H         3.59193837373670    0.59604737116077    2.99180115419685
H         1.36985191240639   -1.06955323237441    2.41627380987600
H         1.12419449727859    0.56464593849518    2.80947808913018
H         6.59822948768112    0.93653072028829    3.26779569093454
