36
 energy: -51.089271829639 gnorm: 0.126190142677 xtb: 6.4.1 (79825abcba525fcdf90b791dcacef51065a7a4e7)
C         2.55476251178262    0.23398045107982   -1.32766464251666
C         3.33856200060684   -0.36337891973761   -0.14289495966535
C         2.91565646530083   -1.79373465369107    0.23772329129953
C         3.58570104103450   -2.20976785622431    1.54468805717692
C         3.56051571580906   -1.14420030450062    2.64295773494793
C         4.94455549361099   -0.63088338831815    3.07317013654873
C         5.72703640347096    0.10318219326440    1.96583850157336
C         4.82266766913734    1.15669437231723    1.29409175983523
C         3.39546863418239    0.63785226151200    1.03721939059667
C         2.75101119974110    0.11117874176526    2.32259564904768
N         1.29589731912784    0.07075712319474    2.21628587191907
N         6.83494226925325    0.85678570242534    2.55414668119232
C         7.42041044639251    1.79442676145471    1.76930472919634
N         7.38222867169020    1.67436714508258    0.43638488458554
S         8.30862155223605    2.90366816592420   -0.21174080029145
N         8.72366115470784    3.53807709038761    1.27602184764395
N         8.24239380869516    2.80809649520766    2.26574475515196
H         2.86730724997046    1.18556437870595   -1.77167660691023
H         1.49942478974229    0.44206356347398   -1.11755841226327
H         2.55481238310011   -0.45276894864037   -2.17836124368569
H         4.41066086392247   -0.40832631319237   -0.38042383708179
H         3.22644659910950   -2.44178100150104   -0.59282273955552
H         1.82101962621594   -1.79724924117254    0.33948177980196
H         4.62599017796555   -2.46358406717563    1.30035543007309
H         3.05861039425089   -3.12395537525672    1.85337755588380
H         3.10479642605118   -1.63446723758556    3.51852328665028
H         5.60688097647729   -1.39936889990512    3.49302816378859
H         4.73246400176816    0.16603522816792    3.80176521846355
H         6.14556631435933   -0.62052141105480    1.25599802483177
H         5.11760246625010    1.57922268380328    0.32329635079310
H         4.71621042133531    1.99122728944620    2.00540546668566
H         2.79514913723370    1.52563127415702    0.79066148709150
H         3.07254218539517    0.85848430140978    3.05947406360349
H         0.98620759130568   -0.36985352411055    3.08382309018786
H         1.02554917256484   -0.54394480056756    1.44787977237492
H         6.96197797558445    0.86371137639366    3.56441271240912
