36
 energy: -51.089023139057 gnorm: 0.130394416460 xtb: 6.4.1 (79825abcba525fcdf90b791dcacef51065a7a4e7)
C         2.04179261203375    0.33933379463364   -1.21502057344772
C         3.15867068575971   -0.04691869871577   -0.22595460547738
C         3.29681917630940   -1.56544086302596   -0.01466723428095
C         4.20063666834254   -1.95698427347917    1.15152657264252
C         3.81306213960002   -1.26343123960286    2.45959194589992
C         4.94095185287538   -0.34503670507597    2.95814924228500
C         5.22580922766756    0.83801744127866    2.01128538830870
C         3.98735887593981    1.59482158816555    1.48926757538952
C         2.83546519693408    0.63998297927873    1.12388852651078
C         2.62575199667545   -0.31501521649294    2.30240512113817
N         1.38288811404352   -1.07545620038327    2.21690073991746
N         6.35088703295718    1.62970323927665    2.51019788205677
C         7.43533961621683    1.90343684036008    1.74406921411953
N         7.39414930829208    1.98770678522169    0.40849839820697
S         8.90021537761142    2.51660741521626   -0.08290855397671
N         9.45589359096226    2.71870759041634    1.47867637701832
N         8.66015292811115    2.15141758218211    2.36694447321825
H         1.04398451185731    0.13101597713028   -0.81336710560539
H         2.28704243259852   -0.20888815132922   -2.13180089392940
H         2.02669592401612    1.42474282165492   -1.34528489922378
H         4.05613663978416    0.38958093298500   -0.68623620394738
H         3.68283633873717   -1.91059277174110   -0.98328594901328
H         2.29683116373805   -1.96287272504470    0.21043020746963
H         5.26114813290579   -1.70572245497081    1.01549151106645
H         4.05394990388393   -3.03253238048447    1.32626025328073
H         3.60006702205647   -2.02338668791595    3.22884975899639
H         5.87410402148929   -0.91120803302882    3.07732497182719
H         4.79303381264442   -0.01829558943367    3.99847292542427
H         5.65117601699992    0.30685511584276    1.15121713748823
H         4.17813237721791    2.25803742980233    0.63386670374430
H         3.63343947300532    2.20142369081538    2.33810235268174
H         1.94785493769168    1.27060200111500    0.96963691061957
H         2.59736745964803    0.30642219989425    3.20675430303042
H         0.58270475993960   -0.44296922154601    2.26520312481347
H         1.33533069301362   -1.85110592871005    2.87833879755333
H         6.37477465702784    1.82893711920288    3.50847576447795
