36
 energy: -51.093481945570 gnorm: 0.128099901323 xtb: 6.4.1 (79825abcba525fcdf90b791dcacef51065a7a4e7)
C         1.49768580804204   -0.60226547811536   -0.72963113693723
C         2.89141383309892   -0.24752913821684   -0.17596750246363
C         3.70566136231998   -1.52368165024972    0.10344733217696
C         3.67831260550413   -2.07422080910758    1.52694969524860
C         3.59851001776866   -1.05517518606516    2.66600299322969
C         4.95765595975976   -0.35127561219974    2.81225892509088
C         5.45133905281281    0.61305875299551    1.71514988963391
C         4.30146115744399    1.48271324229601    1.16697447559453
C         2.96458764903253    0.73194734075702    1.02138106865216
C         2.56177610899454    0.00884431389724    2.30970068214545
N         1.20222665300487   -0.51808133392581    2.37502114031420
N         6.54158127382848    1.36374837168288    2.33910272225808
C         7.58873852318965    1.89855647921385    1.66429713458571
N         7.81047374484280    1.74138050780298    0.35331405012139
S         9.24598594310435    2.52036422333493    0.00411387074843
N         9.33956671778101    3.26533154965795    1.49556838631306
N         8.34278608509249    2.89912980453605    2.28065819663514
H         0.79640587893957    0.23860839970311   -0.76810719084781
H         0.96914645963334   -1.39888543509110   -0.19369855800111
H         1.53514081149180   -0.93392662935796   -1.77073990212633
H         3.39008409315247    0.25227247981619   -1.01820413131219
H         4.71375882378002   -1.12752109644436   -0.07864504409559
H         3.55254550490920   -2.29675441582377   -0.66304533013341
H         4.61008083288696   -2.65405980307364    1.57073690608934
H         2.85155436711511   -2.78470623205761    1.67024615222134
H         3.24326607174027   -1.50348458401861    3.60806308264760
H         5.73489601288098   -1.11435258679062    2.95059630507266
H         4.93555206784978    0.24458137841031    3.73712580228460
H         5.94983075517385    0.07710436784202    0.89842067009974
H         4.54088658671868    1.77283310333035    0.13427588693304
H         3.99731992255546    2.32964843713733    1.80254068726715
H         2.16082423478336    1.43815596247665    0.76729516620156
H         2.57875486905293    0.75313026391414    3.11629087599248
H         1.06164784947652   -1.24306276982650    1.66982200705615
H         0.62229157632400    0.26992212999297    2.08498602596425
H         6.38107494779914    1.83808370633781    3.22570702798184
