36
 energy: -51.088778438863 gnorm: 0.127913520812 xtb: 6.4.1 (79825abcba525fcdf90b791dcacef51065a7a4e7)
C         1.39209099012254   -0.54728313966971   -0.61896756807569
C         2.80129810274036   -0.10259253055261   -0.18165231769056
C         3.72078390982835   -1.33315593034449   -0.08217149400081
C         3.67646682091965   -2.10310631721284    1.23517912444257
C         3.71377687702420   -1.14986251027312    2.43192429540896
C         5.09671545418585   -0.47956721137387    2.48017533676128
C         5.35144932936309    0.70263570888406    1.52371369101448
C         4.11803034857242    1.58594470666240    1.24540233690776
C         2.81799812575828    0.77392971038896    1.09498466056024
C         2.64997041734106   -0.05507138781959    2.37147451390793
N         1.35190775941444   -0.69215928790254    2.57008070481880
N         6.32521482692262    1.60731621874274    2.13593431022908
C         7.51070378739931    2.00874653539859    1.61498301082483
N         7.99597841443508    1.53433954302933    0.46086256082349
S         9.48900454216271    2.27583965013327    0.35838205973608
N         9.34455172520251    3.29974288159747    1.66946016978043
N         8.18577564448707    3.05167418059893    2.25233346559099
H         1.37203134169869   -0.17032099302278   -1.64748104488569
H         0.60639027392122   -0.11557396169047    0.01149455348482
H         1.38390438080728   -1.63876212396828   -0.68154595794410
H         3.31168586261550    0.54618174629891   -0.90720898123467
H         4.72768216327638   -0.96362862328061   -0.31874444056991
H         3.42607901991216   -1.96051559768142   -0.93549782543991
H         4.51044126277620   -2.81758503765971    1.25332784646250
H         2.71778141362220   -2.64124316759007    1.22162933174447
H         3.51838442040257   -1.76410645321948    3.32589461251580
H         5.81288748335905   -1.27559019567549    2.23733625161618
H         5.23844302555283   -0.18982335988485    3.53225644450920
H         5.82393142965356    0.22968716715076    0.65430697872746
H         4.25115754467386    2.23709303765994    0.37004902252531
H         3.86320215069112    2.11160980721459    2.17947102796684
H         1.92611229804042    1.41694311423703    1.07500251725231
H         2.79729200578551    0.62058576264814    3.22389537437775
H         1.03003532714327   -1.22366569227405    1.75979349251287
H         0.62835429646372   -0.04091268943340    2.87625509741540
H         5.89196543425868    2.32430957684793    2.71475983605866
