36
 energy: -51.091336754116 gnorm: 0.135640245643 xtb: 6.4.1 (79825abcba525fcdf90b791dcacef51065a7a4e7)
C         2.15636510148806    0.13041145431743   -1.31650596182661
C         3.03663552131689   -0.30990730641899   -0.13071404712907
C         2.90431228488118   -1.80697488395766    0.20232669999801
C         3.92051828176870   -2.01551380129765    1.32216471591286
C         3.75411252111460   -1.21160547051443    2.61379367104887
C         5.03006568677960   -0.40174673156232    2.89701697005926
C         5.28753526544786    0.69658323083886    1.84597334891942
C         4.09064527622395    1.50591303172732    1.30610853255471
C         2.85737603392245    0.60540417791784    1.10558813397754
C         2.62066080758473   -0.21513498407204    2.37664435472682
N         1.34411582616312   -0.92243975987352    2.39773882630203
N         6.27702830505482    1.68362297146937    2.27972006153285
C         7.42155017857437    1.96947654280493    1.61167963698303
N         7.72219375773446    1.76263160431927    0.32351192915933
S         9.15704603330514    2.54660404979840   -0.01713130839608
N         9.38090905959362    3.06412296100378    1.55456515495266
N         8.38439561654263    2.67987919411838    2.33132705169231
H         2.38463843810894    1.15152006467330   -1.64142335271869
H         1.08214465165039    0.09471332314195   -1.10213014064234
H         2.31501609161992   -0.47853380073125   -2.21055573342753
H         4.06230609301704   -0.24241494695298   -0.51966246664175
H         3.11467558149008   -2.45365644927561   -0.66017636256937
H         1.85884267566052   -1.93287946224012    0.51814040540465
H         4.88293951376017   -1.82866901418872    0.82703139818809
H         4.06243228089508   -3.05100914511908    1.66343059604135
H         3.68698447642227   -1.76083773686968    3.56694346358754
H         5.91683126622983   -1.04917361067066    2.90033900091322
H         5.00914929561868    0.19544196443489    3.82105216370926
H         5.80329760197436    0.24604399505275    0.98935714784233
H         4.41681968384152    1.98855032802557    0.37410427724246
H         3.77552494410131    2.24652057300217    2.05840180797976
H         1.94098923950859    1.18734522213145    0.92978784164360
H         2.71965926299269    0.49445233407969    3.20822280964651
H         0.66044578935251   -0.18546213150109    2.21850278801669
H         1.24376199620238   -1.27047826777251    3.35177908852204
H         6.20215914272448    2.09152616933136    3.20968407604436
