36
 energy: -51.077584630534 gnorm: 0.128150283039 xtb: 6.4.1 (79825abcba525fcdf90b791dcacef51065a7a4e7)
C         0.76048178675860   -0.34919675806212   -0.08487325663667
C         2.29532615973414   -0.33358725382022   -0.22223527341694
C         3.03531718515428   -1.67694871679265   -0.09021135371557
C         3.30944633831087   -2.15136996739253    1.33456164115685
C         4.11163980027370   -1.18500226108242    2.20913815121529
C         5.55490352364253   -0.97331200370527    1.72301030424013
C         5.77249788124165    0.39002294744447    1.03651005226316
C         4.55315228722136    0.80013447469771    0.18561678449354
C         3.13943122869598    0.53980469186221    0.73851730094645
C         3.22240920503683    0.05708658953547    2.18937932923262
N         1.98710011064763   -0.28993985613338    2.88499152006321
N         6.25747316789968    1.36779123633656    2.01131687303818
C         7.37502299094757    2.11370410162969    1.83071508973983
N         8.33441601743317    1.72559029219510    0.98131521887566
S         9.47423362085220    2.94632485035375    0.97267599871057
N         8.64479841301398    3.91591067443129    2.04976040384215
N         7.56947999411425    3.31152337513713    2.52140396457807
H         0.43937469177789    0.66997832873682    0.15702595966677
H         0.39147786907587   -1.06160704113488    0.66177837492790
H         0.23887601852702   -0.65473718032256   -0.99585183112357
H         2.56893870105841   -0.05459973545021   -1.24943458672966
H         3.97199242935553   -1.64989180748646   -0.66315878468449
H         2.50184101435992   -2.49315303551026   -0.59796197997047
H         3.75741835783207   -3.14568390634259    1.20424084941843
H         2.36107796498587   -2.25541146651670    1.88102795381221
H         4.16417123300907   -1.62424467340050    3.21857532420894
H         5.94292043331249   -1.82101219931405    1.14303350171102
H         6.17034705061899   -1.02896421716224    2.63352939049297
H         6.66561220665895    0.28220118596202    0.40920708514903
H         4.74579455722227    0.29051640878579   -0.76891916206154
H         4.69720887713952    1.84381992581790   -0.13642972414711
H         2.74846361707744    1.56657638269519    0.78552994376182
H         3.70695510940234    0.88509166739136    2.72272773185258
H         1.15724317412731   -0.69345414156871    2.44775015526121
H         1.64917787608705    0.51812256235692    3.40866911830966
H         5.67174114177815    1.64286435303822    2.79749513975084
