36
 energy: -51.085949563151 gnorm: 0.124873425523 xtb: 6.4.1 (79825abcba525fcdf90b791dcacef51065a7a4e7)
C         0.77644417653229   -0.97517755093515    0.42164965877280
C         2.17511056917967   -0.51406164654717   -0.03218243558197
C         3.06396751232271   -1.77059211965979   -0.05866745782202
C         3.70539206620453   -2.05674903210034    1.29665135573339
C         4.43354688611181   -0.83432553619527    1.86033232459282
C         5.65447713245251   -0.45361916457854    1.00678963230599
C         5.49496713867809    0.90780793770776    0.30082586847175
C         4.04712572007169    1.20672630065002   -0.13896666583394
C         2.84908502044889    0.68636321643428    0.67712060751991
C         3.44307628539328    0.31503119017613    2.03880687527595
N         2.56227196186933    0.01022405579844    3.16200253925491
N         5.89403365663736    2.03394911774806    1.14583009021285
C         7.16793453283480    2.24230073334302    1.56018113310633
N         8.13230030133167    1.31377764481134    1.54040753026304
S         9.52770139528486    1.98972416228202    2.16121648557937
N         8.79310821882539    3.46920383811931    2.40551754086496
N         7.51930099889540    3.49852816749299    2.05824731074274
H        -0.04310918748486   -0.50640279675809   -0.13416087006176
H         0.55891575660025   -0.81290986643745    1.48350252976646
H         0.62746127673113   -2.04693841387736    0.26530960622056
H         1.97490880960587   -0.21921778684210   -1.07180861385163
H         3.88846072830043   -1.50998895142050   -0.73591057554893
H         2.42691556705767   -2.54836265000965   -0.50345369868383
H         4.41746415724751   -2.89190003828485    1.33906303917356
H         2.93948615177551   -2.35810183304513    2.02564190848987
H         4.85035418597154   -1.09975668603575    2.84545911188092
H         5.84165898039301   -1.20238218952933    0.22586537457320
H         6.46124457212471   -0.49915652733926    1.75376053446246
H         6.20510469062000    0.86579335442708   -0.53387596182455
H         4.01029579650315    0.75845417156180   -1.14179073603983
H         3.94464302754500    2.28800480568634   -0.32357336885241
H         2.08348203981023    1.47565337136546    0.69122832353786
H         4.06733640604653    1.14263620946464    2.39964872575808
H         2.31191609166524   -0.97766989925189    3.22567179905817
H         1.67845018973674    0.51658438514705    3.09993152016899
H         5.45609718405559    2.90686183018967    0.85763129126452
