36
 energy: -51.091695950411 gnorm: 0.120697570535 xtb: 6.4.1 (79825abcba525fcdf90b791dcacef51065a7a4e7)
C         1.32372809117200    0.20673379178842   -0.81476571980016
C         2.70583117004312    0.05231954102508   -0.15083313380646
C         3.11719660475069   -1.42957289149363   -0.21724312775801
C         4.36140843847511   -1.65561851234734    0.63776602025419
C         4.34779101196874   -1.03141115854063    2.03506508118133
C         5.35855150504475    0.10157312799047    2.27766148360323
C         5.07842631157980    1.34859523629341    1.41523594431734
C         3.58751571960274    1.74379232748764    1.41963417578646
C         2.66404724247834    0.51471591512305    1.32660247492156
C         3.01039281887868   -0.43790542732974    2.47440906679917
N         2.04014397539677   -1.52023467621015    2.60659364471590
N         5.91382867722177    2.47739143859081    1.82682097087920
C         7.23778864133724    2.33135240199436    1.57438632634602
N         7.67496781815957    1.53962073515571    0.58717672165105
S         9.31998715491658    1.31433618552268    0.76775889673850
N         9.45717690732702    2.43434068098265    1.99858754163207
N         8.26571777876480    2.89620828264799    2.33197143581556
H         0.62557051468042   -0.47670239520494   -0.31894940752666
H         1.26647016307151    0.00051835612227   -1.88965067520006
H         0.93310256945026    1.22373778626656   -0.72298310433549
H         3.40075972316420    0.65096154951858   -0.75625720635832
H         3.30349770069589   -1.63973243183820   -1.27907465658037
H         2.25164753440732   -2.01664519443147    0.12153099975920
H         5.18538486026183   -1.15926252318403    0.10765639131312
H         4.52688396801001   -2.73699646678557    0.74773050383300
H         4.67214296654361   -1.80784640504502    2.74682413281849
H         6.35947572931414   -0.21270906414025    1.95377380490204
H         5.37566908261282    0.35601220514620    3.34811963021808
H         5.48789429442590    1.16700127547033    0.41416284801474
H         3.38078947627513    2.46247710534712    0.61420452521744
H         3.35209044637345    2.29429544925431    2.34444054147785
H         1.60191037482541    0.71631991967594    1.52796540487799
H         3.13824447886573    0.12550026979793    3.40771802099683
H         1.10179041561550   -1.30159324416118    2.94475755673737
H         2.29367042043880   -2.25824991547851    3.26420475718141
H         5.58594236487961    3.07595371638353    2.58249104735228
