36
 energy: -51.081408948174 gnorm: 0.131218333031 xtb: 6.4.1 (79825abcba525fcdf90b791dcacef51065a7a4e7)
C         2.47883697393644    0.24795361836881   -1.41126350866088
C         3.22617573841905   -0.19692172478721   -0.13908828449123
C         3.18768891006850   -1.70779810450082    0.15315861211378
C         4.14765525069520   -1.93558935395063    1.31796592140441
C         3.77745273659061   -1.13729059052654    2.57013764407473
C         4.91186326182482   -0.22810703933465    3.07077837092660
C         5.17437941012453    0.88580296465822    2.03753021017744
C         3.95079167195145    1.60004545705342    1.42785400323970
C         2.77940074982248    0.66814590946540    1.06524650318379
C         2.62332283269842   -0.16267506141613    2.34207019597205
N         1.37132222501680   -0.86159499598246    2.61464591475130
N         6.28993729082345    1.71787809003749    2.48992575336573
C         7.34737616373082    2.06851820190232    1.71740057634935
N         7.43279247458433    1.57368344035293    0.47627605818445
S         8.92528473491856    2.01420894698445   -0.13023511324958
N         9.35443228037521    2.87780875591947    1.23292225358009
N         8.43600320414299    2.81079622250117    2.17951546880344
H         1.88506834584372   -0.58462886597652   -1.80444037560999
H         3.22970161113572    0.56910315964752   -2.14218498065698
H         1.75254342089751    1.05853550321729   -1.30751314227236
H         4.30429215128001   -0.09363118756556   -0.32572238645165
H         3.37598148961823   -2.37357455833751   -0.69986478474869
H         2.17435670936204   -1.92498467973074    0.52001663772173
H         5.16797408270815   -1.67715643214899    1.00414350191633
H         4.28999278261109   -2.98504837054955    1.61331045004055
H         3.43263403045550   -1.80900191334714    3.37298305105830
H         5.88715287914714   -0.70598056896029    3.23193930654074
H         4.49811444654970    0.20941205387836    3.99181139567334
H         5.70538146372520    0.41815654694853    1.19959742091991
H         4.24124923944025    2.18387771255909    0.54313103464454
H         3.57780860538601    2.28596386286070    2.20512171970196
H         1.83711474077826    1.14969656020605    0.76602765329172
H         2.64626820536760    0.55123025489039    3.17552703448739
H         1.16003127705813   -1.57952260792758    1.91995002688479
H         0.66827913177124   -0.14194622701455    2.44367639472493
H         6.37052630118150    2.21425479995910    3.37532908062544
