36
 energy: -51.094259698274 gnorm: 0.126200414831 xtb: 6.4.1 (79825abcba525fcdf90b791dcacef51065a7a4e7)
C         2.21797361088360    0.44163387431301   -1.17155060355560
C         3.28810358897526   -0.04021017497105   -0.17279779326770
C         3.17361414471776   -1.56264813872098    0.02395495835703
C         4.00334900054044   -2.01691103506344    1.22203071187531
C         3.72547626207448   -1.23933268835795    2.51060488638432
C         4.98137861598861   -0.57427059633430    3.09758420954749
C         5.49371735883919    0.39852497375459    2.01661715977122
C         4.39713320775067    1.40066419978940    1.60160566802255
C         3.08077323600451    0.74284467303939    1.14713072657736
C         2.64254262526278   -0.18609926070310    2.28287697336054
N         1.33817391654327   -0.77154969618495    1.98934313626584
N         6.68062476926787    1.06584316267774    2.55273038469572
C         7.31356994846082    1.90812928484180    1.69958613296322
N         7.37169119898329    1.71976400805073    0.37531731665944
S         8.73167932226254    2.54741038032102   -0.12954450205469
N         9.10191068801046    3.19576495706494    1.36402013666243
N         8.18866625120400    2.84582180981102    2.25146915107807
H         1.22143730099020    0.09023393309260   -0.88210929434442
H         2.37752099400389   -0.00706388312711   -2.15866552452659
H         2.24021404507087    1.52831198067394   -1.28964165858185
H         4.30814765994807    0.20992503003482   -0.49649309421235
H         3.56265559201211   -2.18662628679495   -0.79192450070883
H         2.12639148169444   -1.85517110718144    0.18628777408056
H         5.06357780436472   -2.00877096810335    0.93537553847003
H         3.80261354584581   -3.07736502428051    1.43178098668889
H         3.29205600175433   -1.99729716789749    3.18313255765167
H         5.70909609657547   -1.33876896652854    3.40006607751522
H         4.73263494477736    0.00002621288997    4.00269337775701
H         5.86966171328770   -0.11609784406224    1.12408319378708
H         4.97840364264104    2.00790591822361    0.89355016835369
H         4.20506287081044    1.90451397970187    2.56232930107433
H         2.31337787376558    1.52446268274186    1.04964496049304
H         2.53575173259640    0.36806592835578    3.22433020287638
H         0.64698771517432   -0.02690936145981    1.88717321374224
H         1.00699632856293   -1.38038274010970    2.73836798917095
H         6.33619930569004    1.56337052727824    3.37166941047507
