36
 energy: -51.091432930955 gnorm: 0.127339253782 xtb: 6.4.1 (79825abcba525fcdf90b791dcacef51065a7a4e7)
C         1.32682146577780    0.22069655071414   -0.83989740894624
C         2.66390746481702    0.06270374085304   -0.09016517087759
C         3.00373173484962   -1.43757566653794   -0.14776824978540
C         4.32056765086693   -1.62983844849559    0.60001414942260
C         4.21897570909890   -1.04476290274164    2.01055679729800
C         5.31520235845198    0.01509413549904    2.20837825154268
C         5.07509241857984    1.31742194690604    1.41869380638291
C         3.59210116296288    1.73506669277513    1.49166102570392
C         2.54180664032957    0.61745677685244    1.35056821003915
C         2.86863789528264   -0.44693503991953    2.40183124940466
N         1.88608323267861   -1.52591779720539    2.42780606347826
N         6.06600172373688    2.24406303463336    1.96725118835587
C         7.39206838285495    2.18572918189620    1.69145238189172
N         7.87227945866577    1.08979767853599    1.09072039773332
S         9.50764806987484    1.36657888990225    0.89472719455803
N         9.53932084031328    2.87886757937780    1.60194003870707
N         8.30811318215663    3.20773106347238    1.94837598894100
H         0.64750817480824   -0.50185261879465   -0.37428063307090
H         1.35301403592319    0.03670047546198   -1.92000866591024
H         0.81995550867924    1.18933435002247   -0.82818513597507
H         3.39156571467824    0.62662294207118   -0.69045246683162
H         3.10217548326836   -1.89169766212112   -1.14297845527332
H         2.21807264723350   -2.04120646566507    0.32864190351350
H         5.09582705995464   -1.04054507450086    0.09204880985662
H         4.64162581473236   -2.67886134755578    0.67298823157166
H         4.37167519616024   -1.88476937102255    2.70749926801834
H         6.34530721796308   -0.35450143595599    2.12001030177619
H         5.25730160980283    0.29578072931667    3.27081668827909
H         5.34461086219433    1.14871562789890    0.36908164015252
H         3.38275122574183    2.41118595846415    0.65083060699407
H         3.46349053027873    2.25106809857311    2.45651717766352
H         1.54936153867966    1.03053061120999    1.58240571173003
H         2.88961456040231   -0.06973091441469    3.43242070536275
H         0.94150512271548   -1.13976612563259    2.46421188545615
H         2.09084727291330   -2.17007181113361    3.19235286651969
H         5.73455858121914    3.04090419657506    2.50763354271999
