36
 energy: -51.085023973400 gnorm: 0.134258075087 xtb: 6.4.1 (79825abcba525fcdf90b791dcacef51065a7a4e7)
C         2.34459770137480    0.35792821099971   -1.20310989167572
C         3.32159657512545   -0.05390804294183   -0.08475252498330
C         3.40961663057417   -1.58232727082670    0.07594610253266
C         3.96565708257983   -2.08281131569789    1.40656063183832
C         3.62005613560168   -1.27022025139035    2.65656886703693
C         4.83039449737321   -0.49131351923902    3.19742787418778
C         5.40852385444578    0.40040833150644    2.08032868588431
C         4.32627233209915    1.42107832397586    1.67292372051985
C         3.05100101684973    0.66166552476819    1.26176323701189
C         2.51774637689751   -0.25245184704835    2.36852946363254
N         1.26920152722429   -0.74195397738459    1.79249513358112
N         6.71939159939781    0.93820671510150    2.44622318115332
C         7.48136209093483    1.80128120931839    1.73038522535222
N         7.27476364867293    1.98459681460566    0.42032418837665
S         8.47984216065391    2.94096987152727   -0.22974351485701
N         9.30913923534313    2.96233640273542    1.21938728810108
N         8.70232652282156    2.30077615823079    2.18797271687262
H         1.26313398174315    0.24458956484391   -1.06919426451873
H         2.63171218314982   -0.26619158092351   -2.05705408786642
H         2.45632446669056    1.40559549885252   -1.49503426711795
H         4.27755753084733    0.38406585118408   -0.40436751385684
H         3.97728875990450   -2.03463682632638   -0.74838739674910
H         2.33090452549287   -1.79024929569039    0.11772646093751
H         5.04034992042476   -2.21265217397321    1.22082087391256
H         3.57970127041966   -3.10734014281832    1.50771094953582
H         3.30798322762219   -1.89608224325139    3.50836934669608
H         5.60212774287417   -1.23297946366553    3.44214245711779
H         4.60644238893828    0.13153153354311    4.07653103471928
H         5.56001935007892   -0.22472438808998    1.19204612838887
H         4.64240741820901    2.11017106767918    0.87720377364479
H         4.15384094620193    2.08821726613395    2.53253908764662
H         2.29008134605654    1.44756569889637    1.14912193958445
H         2.34564335513258    0.47832566741327    3.16926809859175
H         0.83645832667920   -0.07400213318155    1.15277648106391
H         0.64025263295142   -1.18159161905973    2.46520350074027
H         6.84872498071383    1.00977426012785    3.45368258416342
