36
 energy: -51.091847569069 gnorm: 0.128260970453 xtb: 6.4.1 (79825abcba525fcdf90b791dcacef51065a7a4e7)
C         2.13451517705168    0.43324152076169   -1.13660941453999
C         3.20004492762769    0.11944096723382   -0.06841718691157
C         3.32252557130207   -1.41348617905171    0.00064611728941
C         4.17333933574083   -1.92987479824043    1.15808250930964
C         3.79599031528581   -1.24958693832065    2.47606618196087
C         5.02156125224981   -0.41959648833478    2.89228106176205
C         5.25099707167662    0.69987773796828    1.85717300501310
C         3.99003762985810    1.58766854209300    1.82848160245885
C         2.83097201773775    0.71418820787470    1.31304328624652
C         2.54757999458853   -0.37841783669510    2.34783964096114
N         1.33646721434315   -1.15117191914896    2.09025655700482
N         6.39376430445317    1.43819319058049    2.39611040690601
C         7.28846730667433    1.97435722684232    1.53011081446362
N         7.66186829455853    1.45493712097373    0.35396375235276
S         9.13592902768029    2.16548529251451    0.01972144461463
N         9.17042961135812    3.18375592868691    1.34263673798433
N         8.12345370095743    2.93302956606593    2.10750214825714
H         1.25556700877940   -0.18196745035949   -0.91454893083870
H         2.39921332327992    0.15862420320041   -2.16408259638109
H         1.79374784566413    1.47202349824851   -1.14752170466157
H         4.15015952503598    0.51144741711861   -0.45758218009186
H         3.96232626091037   -1.66073081823138   -0.85719213293273
H         2.38577928190529   -1.96201617701527   -0.17318765493178
H         5.23247675577248   -1.77852621747494    0.90980015852071
H         4.06929370403604   -3.01956285108062    1.26107296350547
H         3.64768038979447   -1.96335094103999    3.30262645659454
H         5.90743317772971   -1.05083645400792    3.04158889736214
H         4.86054388653245    0.17689214353641    3.80287844762847
H         5.42202870728155    0.26227554417951    0.86619358972824
H         4.16178820699363    2.45182584422009    1.17144710262117
H         3.79111755737456    1.99842572815047    2.83120532424103
H         1.90328994819746    1.30400006450837    1.28382315595180
H         2.47716146023265    0.17852749246942    3.29107380995257
H         0.51179981434382   -0.60648757232235    2.34698391105887
H         1.36648038576149   -1.98972866376647    2.67104593805774
H         6.05998601634058    2.05381244919938    3.13531841873774
