36
 energy: -51.084110885823 gnorm: 0.133195193364 xtb: 6.4.1 (79825abcba525fcdf90b791dcacef51065a7a4e7)
C         1.12655983480816   -0.33976585855121   -0.02796773036608
C         2.61845552553067   -0.56841505110926   -0.33913632796358
C         2.92129213822395   -1.99561859283465    0.15179844204036
C         2.95479200516722   -2.07936688596747    1.67563054321425
C         3.90859486049815   -1.05054035697987    2.28721939044635
C         5.34400866953572   -1.26156308787906    1.77810282233097
C         5.95529463688736   -0.07638235328411    1.00415962178488
C         4.92797366425038    0.48332894671370   -0.00100168758461
C         3.44438531779964    0.50489392133331    0.41200945712862
C         3.41661610416018    0.35235646420468    1.93544758063139
N         2.18376748565953    0.71828995860821    2.62571496120986
N         6.51141157368939    0.88489207155021    1.95713683193420
C         7.37636720346567    1.90394918574439    1.73065292323196
N         7.85149556406455    2.37224789202495    0.56983561954945
S         8.90171048944131    3.60228652755490    0.98637521513051
N         8.60765671117682    3.48114239685919    2.62559049356156
N         7.72007318948538    2.54879109927919    2.92047677021256
H         0.96360030013076    0.73513150566394   -0.16355044543411
H         0.86819736143429   -0.79758868787004    0.93371205985575
H         0.43468137753896   -0.89373075322524   -0.66807440346568
H         2.88100743160808   -0.41555219219533   -1.39532554298969
H         3.79167738114923   -2.34552682315239   -0.41947649806259
H         2.13814319393554   -2.65650948649134   -0.24631953477241
H         3.27976405563797   -3.06576966431375    2.03301734611008
H         1.94173942374866   -1.82015687690419    2.01531750165960
H         3.84948334395619   -1.23355319218024    3.37242393741484
H         5.40159654228429   -2.21286654478850    1.23291371913937
H         6.04249553152185   -1.39854468258645    2.61730781351454
H         6.82212778631158   -0.42084205603435    0.42732732697839
H         5.07939915979479   -0.07265504511655   -0.93690368874704
H         5.23855100835575    1.53237471422151   -0.13057876665023
H         2.97630064860049    1.43824623547676    0.06693544634236
H         4.07467604571118    1.17975109096689    2.23076575626670
H         1.33637372994178    0.16807503358180    2.47788516799206
H         1.91032433867905    1.68268496355712    2.43449354567877
H         6.22938136021782    0.72348636630744    2.92213975562399
