36
 energy: -51.093966931626 gnorm: 0.129577231451 xtb: 6.4.1 (79825abcba525fcdf90b791dcacef51065a7a4e7)
C         1.20424998715047    0.29617323775968   -0.57896464758503
C         2.65170278373228    0.13288093003260   -0.07589891479636
C         2.93003507435788   -1.37907671880253   -0.15433437473044
C         4.06385612456973   -1.82556249249171    0.76506791267856
C         4.07019980699917   -1.21844321428815    2.16992761107289
C         5.27594192067156   -0.28343720458828    2.35990866445068
C         5.18840372714126    0.99664449580035    1.50489996690152
C         3.80463862193188    1.67773143202013    1.52304124697876
C         2.67342356620637    0.64146626793420    1.38671564265441
C         2.74779768704953   -0.49298985941849    2.41257154363589
N         1.68220082403949   -1.47944408634751    2.26525045265720
N         6.17578078990410    2.04104581810270    1.78020438134406
C         7.50436283689988    2.08474346039001    1.51396982371391
N         8.18602921988570    1.13479693738185    0.86168155676825
S         9.73194410050923    1.76359515162004    0.79678425640117
N         9.40485850996943    3.25014438741985    1.48333843324102
N         8.15086486161780    3.26146922401438    1.89735900708082
H         0.83928932808891    1.31664458534865   -0.41838827410566
H         0.52159388757237   -0.41298601086885   -0.09703649991592
H         1.10454503389093    0.14601825081242   -1.65730682927103
H         3.34692509650103    0.70679760658971   -0.70448605964332
H         3.21719069797195   -1.68110115253406   -1.17054507620408
H         2.04965930333058   -1.93629568285875    0.19643976060677
H         5.08690237446927   -1.62987154145590    0.41663710814028
H         4.06780711482320   -2.92249590958324    0.69040832396510
H         4.24267927613637   -2.04942234352268    2.87305014971147
H         6.23693406974376   -0.74559536836454    2.09831793290548
H         5.25766278127876    0.04215633530555    3.41089276738009
H         5.39593644580224    0.69027941743305    0.47249583057176
H         3.63176760917626    2.42199072019252    0.73300696798607
H         3.60405402118007    2.10774419357398    2.51732509521847
H         1.75327072793314    1.19651960618880    1.62029739029133
H         2.74855739495289   -0.01024882284555    3.39836974598974
H         0.79253889902044   -1.01326337753264    2.44921649641653
H         1.92233825626900   -2.20244197788013    2.94422216095611
H         5.88891086188320    2.85054802537766    2.32722842168271
