36
 energy: -51.086372458289 gnorm: 0.116297342171 xtb: 6.4.1 (79825abcba525fcdf90b791dcacef51065a7a4e7)
C         1.92973840406695   -0.15646898364076   -1.04008271208041
C         3.10272620316760    0.16713817205730   -0.09444158113471
C         4.01753591665243   -1.06620838622866    0.01333780054788
C         3.98195580345820   -1.90057794728903    1.29113348151099
C         3.77322478593193   -1.11172893553967    2.58589734634873
C         5.03296984169100   -0.27908995543328    2.87554856197135
C         5.22946643194551    0.96498443768308    1.98617800268036
C         3.87208728642100    1.67744622883765    1.81607663998824
C         2.76233330849241    0.74067559429336    1.30325642257094
C         2.47246653335490   -0.34960453218287    2.33871239360953
N         1.38671850188810   -1.28932242075565    2.07722887334423
N         6.23202514011446    1.92024298229813    2.45929246135842
C         7.31197389395701    2.14408762190318    1.67092398320364
N         7.45508515006008    1.57717221139462    0.46648489069445
S         9.00239837154865    1.86387971794365   -0.09304371560972
N         9.42440904430061    2.84035508142697    1.19403557699421
N         8.44211991902701    2.85672375868836    2.07657820483969
H         0.99864058674106    0.37145168603400   -0.80620357732711
H         1.69500159101791   -1.22697590923854   -1.04980297307601
H         2.13993527943238    0.15852854454889   -2.06570608008043
H         3.61251959745328    0.99464514878786   -0.60745145465693
H         5.08379027399673   -0.80364872440020   -0.00958339440966
H         3.67644610583572   -1.72626014608554   -0.79696238573843
H         4.95978582871969   -2.39242574574914    1.38200041412919
H         3.27647920852602   -2.74323246187620    1.25813737383161
H         3.59433584775536   -1.76875788056766    3.45248173768552
H         5.85397387739501   -0.98442734327395    2.69121912043840
H         5.14832897210202    0.08909868512561    3.90610291275376
H         5.69611699327960    0.69344682089450    1.03156170043112
H         4.00232437693213    2.48826615522830    1.08561801738838
H         3.64978280813192    2.03422881344376    2.83442454146899
H         1.93663849211084    1.46168660978920    1.21552338852133
H         2.31822129364769    0.22425793769789    3.26160343292246
H         1.38481296302058   -1.69217413405485    1.13894684497103
H         0.45168290854761   -0.89186951536867    2.17280158311724
H         6.26757003935843    2.24357988598455    3.42418275449014
