36
 energy: -51.088773733082 gnorm: 0.127519597190 xtb: 6.4.1 (79825abcba525fcdf90b791dcacef51065a7a4e7)
C         2.82599856584021   -0.07778371606784   -1.46601932585467
C         3.39661450635632   -0.39700297595426   -0.07054249444904
C         2.95639796983630   -1.82022825836893    0.31711211173941
C         3.47289584445456   -2.25823701394033    1.68516859740708
C         3.55736831035869   -1.15908794954413    2.74677141841746
C         4.99161457899778   -0.60650252367225    2.78836551030315
C         5.42031802968438    0.48691362534176    1.78938279347881
C         4.30706598488362    1.46223210481804    1.35528814874397
C         3.06818152713550    0.59088454975923    1.07600979580956
C         2.64744195637958    0.02824483607619    2.43664100125214
N         1.21818635104558   -0.23311493486994    2.57524683895951
N         6.46124823266608    1.29228899337196    2.42916010105971
C         7.40782893877189    1.85334106703764    1.63724713337830
N         7.47397584982231    1.82534166598626    0.30031479898704
S         8.74566580405540    2.79293881288618   -0.18549595243168
N         9.17601043847285    3.21320701669592    1.37217807758618
N         8.32671115239373    2.70863273306383    2.24861225818080
H         1.80072454164673   -0.44806383393801   -1.57578557020353
H         3.42728630696613   -0.45785252867594   -2.29979487783463
H         2.87467104044445    1.01434618086524   -1.47990222891135
H         4.48958543502768   -0.50993373810355   -0.09284500834489
H         3.30452828768101   -2.51099432730986   -0.46263708708590
H         1.85817469946887   -1.84691363178084    0.35942639417290
H         4.48679399135981   -2.65648111540220    1.54468807041319
H         2.81167807850926   -3.09444423519657    1.95424318096219
H         3.39788004084309   -1.57212663598692    3.75603813677967
H         5.72993014799936   -1.40672578181745    2.64673693885401
H         5.11498135628659   -0.25213878098367    3.82283148102906
H         5.99817045836024    0.08034600428251    0.95058779635952
H         4.58854987069107    2.10739436896621    0.51119519862859
H         4.11340679262826    2.15708428456871    2.18800784721341
H         2.28018519214920    1.27598632719343    0.73101239738008
H         2.89725115132306    0.71993846839891    3.25149857169275
H         0.96548311903780   -0.83132689357202    1.78724314201770
H         0.73835426910463    0.65156723205104    2.40644769685905
H         6.22477690695243    1.69754301783523    3.33286025803772
