36
 energy: -51.080276733271 gnorm: 0.131413434812 xtb: 6.4.1 (79825abcba525fcdf90b791dcacef51065a7a4e7)
C         1.17687127518322    0.01694057131978   -0.47889709046826
C         2.64066708548732   -0.44852192358255   -0.35437567757731
C         2.74131735223643   -1.89416084122732    0.16488778415565
C         2.96898736174865   -2.16921207904674    1.64904190805240
C         4.05908752694020   -1.24567581246077    2.19770139133633
C         5.46805331424355   -1.37772017497946    1.59643374475609
C         5.96457293142401   -0.02052458130425    1.05903224812607
C         4.93278559945251    0.61902006915175    0.10750089631945
C         3.46106884151451    0.50655828776115    0.54736425538901
C         3.56459395202167    0.19141726655733    2.04231282362235
N         2.31140901895677    0.31763248073683    2.77980137437282
N         6.42050150634770    0.82837983947807    2.16038166532728
C         7.25579001583233    1.86486148223227    1.90363374125594
N         7.46308272415237    2.44999009581795    0.71737842578424
S         8.50674841519891    3.74106911253848    0.89993953124392
N         8.73480205340122    3.42830729912897    2.52423686725421
N         8.09217266710887    2.34260103478084    2.91450694545139
H         1.18988299279686    1.02814798320264   -0.90036249793807
H         0.70292090122184    0.11671002705191    0.50426008180673
H         0.56788289868582   -0.64882823548048   -1.09630660435984
H         3.12718708251685   -0.32852744659332   -1.33250441714919
H         3.60319432781818   -2.38691407186688   -0.30492455406583
H         1.81438013146455   -2.40232654200221   -0.13702606691637
H         3.09140794070849   -3.20388211912764    1.99659579363251
H         2.07539382142263   -1.86393570767867    2.21220220171553
H         4.01107235077802   -1.39215114456281    3.28898334643741
H         5.48607659016325   -2.12895334545274    0.79590287571690
H         6.13357663476914   -1.82102906177938    2.35238930004338
H         6.84816630761266   -0.31550894664313    0.48021045703474
H         5.13047044890587    0.01140284349545   -0.78674876389125
H         5.32040674571905    1.62433324710499   -0.12237032621813
H         2.97675823539384    1.48016056724073    0.38345051523026
H         4.36753040327305    0.79262798174881    2.48804403997928
H         1.64897375821466    0.74984786143326    2.13401836832390
H         2.50053833819710    0.94338684580132    3.56341868616013
H         6.59406592018630    0.48426454883857    3.10286961804383
