36
 energy: -51.095125933427 gnorm: 0.125750943031 xtb: 6.4.1 (79825abcba525fcdf90b791dcacef51065a7a4e7)
C         1.81397728283170   -0.37372955377961   -0.82032240217135
C         3.23878636992955   -0.31713409326778   -0.23587816498529
C         3.70834187984345   -1.70000322289049    0.25077102726026
C         3.37520424475020   -2.07686464622258    1.69201875774272
C         3.48599706790636   -0.92483192068434    2.69342294134729
C         4.95754602612592   -0.56236249183521    2.95285046749148
C         5.69389313067555    0.01264111939130    1.72627971752183
C         4.79479128151366    1.11568618247733    1.13136639346256
C         3.31955927361206    0.74766000891964    0.88575517734284
C         2.69005003270819    0.28304768798417    2.20209706329244
N         1.24709517491807    0.08581796348853    2.29839744973503
N         6.91204050649042    0.64812073205164    2.23002850043308
C         7.44123098108190    1.74114687833168    1.62739098883979
N         7.47861100172181    1.87252048186318    0.29551591174378
S         8.49320120619565    3.15469026423403   -0.04521719397318
N         8.93177186592349    3.39925608596293    1.54726941275963
N         8.40799936623120    2.46869537708031    2.32428968968841
H         1.39493126888500    0.62967407009319   -0.95420450124084
H         1.12442897769366   -0.98667728673512   -0.22871516223273
H         1.79475692042790   -0.78539834747738   -1.83297674886792
H         3.92029287269259    0.02230356712177   -1.02844813171213
H         4.78999534648162   -1.78676805089171    0.08089190697994
H         3.28294071117118   -2.55369443130526   -0.29589350451353
H         4.08671888443637   -2.84749374092542    2.01790264122994
H         2.38406497742732   -2.54250948500814    1.79035697361277
H         3.01011267415956   -1.25307035404627    3.63174609266386
H         5.44314842359941   -1.51074241935443    3.21797613900801
H         5.01023305958323    0.21844657747630    3.72646157375403
H         6.00243200973584   -0.69556634207270    0.94779808164744
H         5.25151212463635    1.42199840582456    0.17976809248558
H         4.79691993301524    2.01697205856495    1.76494729740281
H         2.81100304586572    1.65420024449028    0.52675488657066
H         2.95697647377127    1.08020945168007    2.90787391295775
H         0.90925331260448   -0.77049166571918    1.85651174442030
H         0.72366142293617    0.91828821257206    2.02562485014725
H         6.90323672532020    0.62299242872465    3.24792563741099
