36
 energy: -51.086188697355 gnorm: 0.137001676910 xtb: 6.4.1 (79825abcba525fcdf90b791dcacef51065a7a4e7)
C         1.45010497008084    0.18857821982783   -0.80016282021246
C         2.79375365295957    0.16839465235143   -0.04580221825275
C         3.34442627812037   -1.26445716372993   -0.16126732447690
C         4.43582654807287   -1.64334758359872    0.83647399387918
C         4.14547344515791   -1.04604252573428    2.21530920110252
C         5.19658863109977    0.03216255359056    2.52639398984335
C         5.08024252265018    1.17264961449398    1.49534363117376
C         3.66593529663901    1.76472180710404    1.66327213758352
C         2.57880510118541    0.70863686291475    1.38957494293452
C         2.76065228102850   -0.42782794763262    2.39966495665973
N         1.83751458608853   -1.51822808068850    2.10110768190777
N         5.97329121554696    2.27806146245521    1.84464126479510
C         7.28013172222511    2.11763031700658    1.52160823434971
N         7.80770790273370    1.01848605203377    0.96835178765850
S         9.42358656696861    1.34882187025861    0.70516733409838
N         9.38829588418642    2.85523962187636    1.42463267393026
N         8.17976551473079    3.12147687748562    1.88573290914485
H         0.94141032488622   -0.72978928988052   -0.48683599763276
H         1.60276694032674    0.22693083099912   -1.88478456182703
H         1.00649031260634    1.13952013038060   -0.49320195268041
H         3.35116099681461    0.86465036417667   -0.68795580492372
H         3.70073274422112   -1.35760602366944   -1.19602829813816
H         2.45011710506090   -1.88287183632370    0.00112523715804
H         5.49080267052928   -1.53446360349096    0.55100555082707
H         4.40517353478215   -2.74110636046112    0.88975284864773
H         4.28768993815607   -1.78433787747840    3.02113251111208
H         6.18141988502057   -0.45175223140442    2.48818838534938
H         5.15482157915285    0.47097269773610    3.53466678597201
H         5.48885917667501    0.91754160531811    0.51008223171296
H         3.56317274611456    2.66721882984596    1.04448347398818
H         3.47761497725424    2.11869857502340    2.68942096992529
H         1.55739603578611    1.09031358975162    1.53230631767279
H         2.67143485644926   -0.03688636723630    3.42144892952931
H         0.83986489132875   -1.30190088080862    2.12485467596744
H         1.91754302834836   -2.25986308639016    2.79750374596297
H         5.68505352555038    2.94482032707171    2.55820634859191
