36
 energy: -51.092723763970 gnorm: 0.120637975962 xtb: 6.4.1 (79825abcba525fcdf90b791dcacef51065a7a4e7)
C         1.51231713339246    0.21276686807395   -0.87863259620513
C         2.85345393405779    0.10361964867509   -0.12743487808721
C         3.32057189811472   -1.36309812342496   -0.11414521130021
C         4.38158671887075   -1.67665466692525    0.93758196631152
C         4.22091912006793   -1.05155633366085    2.32527888989672
C         5.20684782188888    0.09262711998192    2.61325777688423
C         5.05437847526181    1.24426472470504    1.59945509176145
C         3.60476460514611    1.76333645474618    1.69000087177390
C         2.62965622724204    0.63317071890716    1.31057149729153
C         2.82194555234143   -0.44066397600149    2.38519064994501
N         1.83785660188220   -1.49387264622356    2.15581648348332
N         5.98711026392683    2.32957950429046    1.90536911304821
C         7.27369634649183    2.10543931415806    1.54153117046187
N         7.63474608835962    1.70874842464350    0.31481731757088
S         9.30481236204878    1.72610499534968    0.32020815357594
N         9.47130056466899    2.25258750694975    1.89604700767379
N         8.28592073646190    2.36960960195563    2.46632926229747
H         0.81035776263102   -0.58546159088303   -0.61325140242654
H         1.65348974826546    0.09660482894734   -1.95926092650177
H         1.01985144370806    1.17576838006826   -0.71921153576156
H         3.60590803278214    0.70860202246678   -0.65245423736443
H         3.72227465247729   -1.76176101353311   -1.05545497134487
H         2.40796105652359   -1.90261893631497    0.17681129767525
H         5.38441692694672   -1.38766853133710    0.59532305427465
H         4.48295879180570   -2.77144842219893    0.93928193030366
H         4.27254769226233   -1.88808822146202    3.04096431519179
H         6.27077807775416   -0.13471039591934    2.76123013759267
H         4.79665078443777    0.50195287130894    3.54872754281536
H         5.26181625772025    0.93530269808688    0.56780606484701
H         3.56003109202227    2.56657703905914    0.94115916800524
H         3.44675577666308    2.19709464092670    2.69031709637621
H         1.56538291873881    0.90030877334257    1.38327239034561
H         2.77553107838305    0.11833826766474    3.32869462012486
H         0.92475241125970   -1.20314384387106    2.50849734374219
H         2.22543539044807   -2.32445180667689    2.60449838664862
H         5.98744496483795    2.59878323353391    2.88738374820959
