36
 energy: -51.083401707897 gnorm: 0.131276400613 xtb: 6.4.1 (79825abcba525fcdf90b791dcacef51065a7a4e7)
C         2.59917145498492    0.27194435218519   -1.41558297899967
C         3.32017244216415   -0.15833618527933   -0.12334642102712
C         3.01147149192435   -1.64828239519248    0.10989365231623
C         3.78047978472301   -2.10556292703275    1.34671257866639
C         3.59955059659802   -1.28058615328965    2.62301301215733
C         4.89819791903335   -0.58623879781931    3.06521204973563
C         5.57816498957856    0.30069305961124    2.00299330615311
C         4.50822138179801    1.32174541280981    1.56517237297189
C         3.18049502902617    0.63100398647412    1.20172130613012
C         2.60768118094986   -0.14157700879863    2.39331916207876
N         1.25776803408241   -0.63350861539879    2.13635630059927
N         6.80749303187455    0.92926765595474    2.48789192634340
C         7.57534855822072    1.70055510265889    1.67953918166835
N         7.03708709438462    2.22558756055798    0.57176530349395
S         8.20327639394046    3.23095322241722   -0.07530043662757
N         9.33058846813513    2.93595595103711    1.12065706586406
N         8.85044242303132    2.13133357965003    2.05129339181854
H         1.70094860014177   -0.24976892655532   -1.76394166617818
H         3.28113658016136    0.14786461318375   -2.26452862745416
H         2.26453179279435    1.31169695773650   -1.36825149308065
H         4.38740088395993   -0.03091566844171   -0.35274494957421
H         3.35412386529602   -2.12918622590489   -0.81621765795267
H         1.94941568957760   -1.83355825063492    0.32508495633616
H         4.85718797179649   -2.21656448377399    1.16043123373214
H         3.38762607875083   -3.11432023973842    1.53887720663217
H         3.23745687127038   -1.85191292056257    3.49314555892233
H         5.55663829662866   -1.39315131167614    3.41288180477241
H         4.66267676104209    0.16499403931236    3.83403705460656
H         5.75229404443502   -0.22857600667413    1.05835526962999
H         4.80078293617390    2.07428219882198    0.81948037460271
H         4.24596315036615    1.93417766958376    2.44260777517597
H         2.52800425926407    1.49617636236863    1.01448230893289
H         2.76173025965594    0.55991894228023    3.22338536628610
H         0.64388823364615    0.13183490214190    1.85339483884786
H         0.87804370255364   -1.11205371124235    2.95379041898851
H         7.18073061881042    0.60081723102092    3.37650742129361
