36
 energy: -51.082485743930 gnorm: 0.127958380831 xtb: 6.4.1 (79825abcba525fcdf90b791dcacef51065a7a4e7)
C         1.22392838847789   -0.29114995154678   -0.35695424261706
C         2.76005302469498   -0.19581123705829   -0.27891137993509
C         3.40576576938711   -1.58582185035692   -0.13551533802348
C         3.12985901265339   -2.18518516415812    1.24101629744863
C         3.70932393092653   -1.30581639207490    2.35150977456268
C         5.22942490983889   -1.10458801502230    2.23774158611243
C         5.71084909839329    0.05572282482829    1.34374972527185
C         4.73964824012874    1.00449314954908    0.61189036505645
C         3.25899371644256    0.68633276243251    0.89209342809333
C         3.11760789951114    0.10172014305480    2.30033367481313
N         1.74849284474956    0.12930185604198    2.80536365657291
N         6.46425219749602    0.97784342567180    2.19437156462065
C         7.37256475540270    1.88176274084253    1.75185741808022
N         8.16818206184327    1.75278176408157    0.68279032148404
S         9.17877163113589    3.07255666949870    0.52044937827124
N         8.57696271028800    3.81091975877706    1.89187791164310
N         7.63280417263245    3.06821539510608    2.44050915378734
H         0.76167868869202    0.35084114703704    0.40101373727726
H         0.90986273628688   -1.27923183047049   -0.00165452954649
H         0.79066073615008   -0.04851231143312   -1.33097455173531
H         3.06163604708139    0.21107627460687   -1.25427101774761
H         4.50003384741114   -1.49682007098066   -0.10361945967100
H         3.05207293963024   -2.22657928175022   -0.95583737734560
H         3.71031665131579   -3.11661505494492    1.28379343988482
H         2.07994444683410   -2.46261437945462    1.41296106367207
H         3.57988248700149   -1.84510592380755    3.30391119725284
H         5.66134500827087   -2.06439624918363    1.92510928543807
H         5.58927755495550   -0.95023884456768    3.26613609385859
H         6.48028643044928   -0.25947856737737    0.62862598424533
H         4.92013073433707    0.84869538710128   -0.46100923618249
H         4.98064237445790    2.05570399040630    0.83688614877680
H         2.70237695931049    1.63453073179674    0.87149612289698
H         3.77791858972613    0.65430945397119    2.98112175011325
H         1.16072654983190   -0.68767347789884    2.63288649947118
H         1.38247359643983    1.02313406696848    2.47598788614662
H         5.94060563407455    1.39480949893332    2.96167663237745
