36
 energy: -51.091766065536 gnorm: 0.115378230208 xtb: 6.4.1 (79825abcba525fcdf90b791dcacef51065a7a4e7)
C         1.69534801480309    0.35425640034855   -0.71800786173958
C         3.02993073830906    0.41205031860168    0.05037221275696
C         3.88987302575890   -0.80937365128968   -0.32146065516314
C         4.55833091677951   -1.61070898865712    0.79264258675384
C         4.15761163133457   -1.22439001214360    2.21828159140607
C         5.15513096402073   -0.25892592569926    2.87932426355181
C         5.08073669449520    1.09898304416744    2.15278400155168
C         3.64863848968225    1.66327406003857    2.25119543332125
C         2.71558658319654    0.66102304238262    1.54622399167669
C         2.74121398949195   -0.66082322896320    2.31886119969387
N         1.76056863082409   -1.66943332090733    1.92984641252550
N         6.15644486948622    2.02847552386507    2.49973618195870
C         7.29300254193335    2.04335646976764    1.76086147001300
N         7.31873302128687    1.28735441972760    0.65616861096963
S         8.77472293031711    1.60705953379189   -0.09704696106622
N         9.31638506060700    2.70468080885520    1.03873467516152
N         8.42298819075052    2.82684054510146    2.00359756322104
H         1.81221679001379   -0.09904355935242   -1.70856511172458
H         1.32956398967015    1.34683310002381   -1.00466876982584
H         0.83082637330848   -0.02726747701278   -0.16814303836697
H         3.50977251153794    1.33841912090708   -0.29521271816855
H         4.70514566204815   -0.51655947028573   -0.99670260685649
H         3.28530392892405   -1.56967189693153   -0.83628077801956
H         5.62709471734751   -1.36295365538687    0.74083671911422
H         4.52108009354615   -2.69938520236234    0.64348133976866
H         4.26000231024238   -2.17634119522214    2.76414045505868
H         6.15729386764808   -0.70183484934462    2.80842287332142
H         4.86893687332463   -0.11231797540542    3.93170819355897
H         5.27954642962992    0.83417642210999    1.10725070878710
H         3.46219750930854    2.67817246573350    1.87280220791785
H         3.36013517056189    1.70123353228679    3.31377270336210
H         1.65340456396748    0.94531076669858    1.56282971640964
H         2.51804292862412   -0.39341803965036    3.35978710689512
H         1.82917613303291   -1.87690487032173    0.93239221861660
H         0.84989160570881   -1.24431472273396    2.10686633849813
H         6.15206045999127    2.55415954950920    3.37178008564745
