36
 energy: -51.089147040760 gnorm: 0.126606629898 xtb: 6.4.1 (79825abcba525fcdf90b791dcacef51065a7a4e7)
C         2.16658778478422    0.49227150840802   -1.16915524338797
C         3.14887260033371    0.00253261030399   -0.08742909395292
C         3.12653711929295   -1.53318453228889    0.01606444417219
C         4.06504671425227   -1.97732115580915    1.13505626738789
C         3.85009635989455   -1.29294564195971    2.48697762537533
C         5.03337227365794   -0.35958402828012    2.79166980282357
C         5.20119247437492    0.79839259321597    1.78755898700654
C         3.89640284325328    1.61590948850883    1.69697984638100
C         2.78936559886689    0.62852979851698    1.28270025611079
C         2.62033959705750   -0.38945726515282    2.41408662596785
N         1.49011473310777   -1.25786542980601    2.09983966344576
N         6.16056193248652    1.81423926931221    2.22246809113221
C         7.36151886534424    2.03898852411285    1.63500676016370
N         7.73407079025976    1.43928644021579    0.49741723910943
S         9.19260925407240    2.12773874429126    0.06365389178656
N         9.35775847072325    3.04605023716940    1.44842823752389
N         8.32729778656966    2.83958511452720    2.24815587092691
H         1.15852646768438    0.19123165252987   -0.86332814568360
H         2.33469094745928    0.13325342585016   -2.19093226003897
H         2.10826987079620    1.57892643620135   -1.27446216050300
H         4.11375843504493    0.33966161482753   -0.49137906936570
H         3.32445446549340   -2.00521604238104   -0.95572580057428
H         2.08348739382602   -1.74863067295316    0.28851113982479
H         5.07460694051604   -1.64927898240086    0.85310043121062
H         4.03119176806889   -3.04980029936054    1.37483726192824
H         3.85769029122747   -2.03106079384624    3.30538164844919
H         5.94026901800383   -0.97577040342790    2.84979418787073
H         4.90611102358623    0.17395763540123    3.74563560281325
H         5.61134506871046    0.51330346492644    0.81119494344855
H         4.04298145067138    2.46217833043947    1.01119255676687
H         3.65200363926302    2.01156043727464    2.69571649752950
H         1.80939447372974    1.12470989566690    1.22990064742849
H         2.51564080837320    0.12522876252924    3.37791962441636
H         0.55315403095856   -0.88339665504412    1.94317416814789
H         1.42759259560661   -1.79661443367310    2.96426722774610
H         5.90522088791992    2.40536403296290    3.01126207423502
