36
 energy: -51.095415488144 gnorm: 0.122877445751 xtb: 6.4.1 (79825abcba525fcdf90b791dcacef51065a7a4e7)
C         1.37303781688285    0.13312949701390   -0.87697267444184
C         2.75494011243888   -0.05452350808978   -0.22123530427536
C         2.97085771925333   -1.56935520869206   -0.05300501418088
C         4.15660150494425   -1.83067828632345    0.87215563730141
C         3.86032556856543   -1.23437925787148    2.25016611978084
C         5.07086059104419   -0.46280138955224    2.80099791149039
C         5.42609486850881    0.72487975227893    1.88419144580288
C         4.21022007883947    1.44449408703523    1.26546850837234
C         2.87338937688882    0.69164382188182    1.13064348279983
C         2.68832995973854   -0.25680219936776    2.31854318564478
N         1.43355854811481   -0.98710428515997    2.16854418613059
N         6.39670323147404    1.62778621831566    2.50399741830376
C         7.51483080265418    1.99687149213832    1.83206930586485
N         7.84842082100712    1.52995230175183    0.62241992977667
S         9.30879297756612    2.24324199245129    0.23773480048932
N         9.35230212786286    3.30008757822837    1.52976986696490
N         8.35004753511908    2.99670931338225    2.33443670104446
H         0.53666567282664   -0.12049475767418   -0.21629181468023
H         1.36823605583076   -0.48406790474834   -1.78263554823870
H         1.26189167406787    1.15271311123520   -1.25566152792605
H         3.51562905665221    0.24109405884321   -0.95730513699853
H         3.11684953349194   -2.06007792797963   -1.02472457608041
H         2.05422487588745   -1.96828315915006    0.40442005281548
H         5.01547549250780   -1.33103175776596    0.40416906835642
H         4.35476004176144   -2.91202303490841    0.85544270322828
H         3.60536270844178   -2.08279294362712    2.90579173768347
H         5.98179515139253   -1.07057009355551    2.88062971372141
H         4.93378403475723   -0.07646536043765    3.82220668556649
H         5.92910717082095    0.29810141505541    1.00804843523838
H         4.56424107003933    1.91073274699284    0.33527977230354
H         4.05975917975825    2.25532525707123    1.99598877452636
H         2.00169688787769    1.36124573628708    1.09730643584044
H         2.82169870400153    0.27939674557507    3.26698456806582
H         0.65421932276658   -0.37531302955027    2.41554242933048
H         1.42652670405648   -1.78015746132911    2.81073709372549
H         6.30779046323570    2.03006719390920    3.43517302276572
