36
 energy: -51.084686201595 gnorm: 0.133840785558 xtb: 6.4.1 (79825abcba525fcdf90b791dcacef51065a7a4e7)
C         2.53284455374792    0.25798854389230   -1.32823526635953
C         3.27953764837918   -0.21097424309775   -0.06435931003802
C         2.92393772211155   -1.69711208603445    0.12159749054564
C         3.77923343094959   -2.19008769240090    1.28591900933339
C         3.66887188361146   -1.28001773980225    2.51142210775370
C         5.01049975016889   -0.58606021146931    2.79882550959400
C         5.49314022841130    0.50291005704342    1.81978826016435
C         4.35013059009419    1.44389292341395    1.38724387662773
C         3.01992862948148    0.70173987897781    1.15953949389868
C         2.64166171523856   -0.15823417204884    2.36877947321486
N         1.29754591602792   -0.69861218263045    2.19091309145377
N         6.42876399988523    1.35568810382691    2.55385769870910
C         7.37058265072581    2.05974264674531    1.87916854206653
N         7.22167397675343    2.17269180443043    0.55341737191149
S         8.59726993271933    2.87215010185067   -0.08528876294564
N         9.38689423091934    2.85087185448725    1.38583698088945
N         8.64466181672626    2.36315450855202    2.36321315840660
H         1.43957558758165    0.18687106694186   -1.32130013183912
H         2.76919035122449   -0.31639823505593   -2.23123106991691
H         2.69246827944720    1.31963645956849   -1.53495591740906
H         4.35537994746394   -0.30857440103832   -0.26653196091240
H         3.07242834339060   -2.13561078347505   -0.87440990379007
H         1.86252877397249   -1.92946924135885    0.28898376046175
H         4.78050783355285   -2.18353798326295    0.83455521360406
H         3.61979595038555   -3.26190862218198    1.47201621626932
H         3.36144068497907   -1.79642286204856    3.43525574813111
H         5.81642039356185   -1.31153736616519    2.97116416073537
H         4.95612327811320   -0.03121671156889    3.74756402420519
H         5.97774903350733    0.08919250513839    0.92716303337602
H         4.68052816215738    1.90387869203005    0.44532509624559
H         4.18753599302351    2.18788087824268    2.18335345290483
H         2.26211120379285    1.46405191941619    0.92733486623625
H         2.69255631865300    0.46041417241406    3.27405376951002
H         0.64431919718682   -0.02044582097523    2.58594668488629
H         1.24459827866948   -1.52033559374288    2.79370799952747
H         6.68827711214969    1.13097443236690    3.51249225210678
