36
 energy: -51.083837397411 gnorm: 0.126507064756 xtb: 6.4.1 (79825abcba525fcdf90b791dcacef51065a7a4e7)
C         2.27740369174974   -0.19489729314596   -1.24855781852711
C         3.30307419912748   -0.13391288207458   -0.10001960122684
C         3.63922359461372   -1.60862436150752    0.18610376168073
C         3.78107138628973   -2.03112300607667    1.64609499871442
C         3.55382432645345   -1.00283862981214    2.75661509842114
C         4.88956535216271   -0.29983629318545    3.04940643518046
C         5.33029485264158    0.69118345598764    1.95352805990755
C         4.14020193160517    1.57952879385664    1.53695171331117
C         2.91191603248041    0.75689942051377    1.10489572763477
C         2.45193992229537   -0.03291818160316    2.33351801343641
N         1.16075316166241   -0.69955197616171    2.19666672210348
N         6.43525588629300    1.49820127513015    2.47243416901759
C         7.44427703362490    1.89890304904083    1.66050126119180
N         7.55887605558102    1.65654503569994    0.34875543104393
S         8.90824840768543    2.43881080666337   -0.24849341708732
N         9.34138533077245    3.02422212836115    1.25412304854758
N         8.49612196361326    2.64532094748582    2.19540148603617
H         1.48869617060877   -0.91435427533298   -1.00225530600243
H         2.60502201372391   -0.42124336175741   -2.26964284217715
H         1.82193334902236    0.79900422470179   -1.25255832398134
H         4.11925716565240    0.40981041918752   -0.59605041812200
H         4.57009790002503   -1.76509089842356   -0.37545884489205
H         2.87729548063361   -2.23527647404255   -0.29904534436592
H         4.81439386646357   -2.36984684315921    1.80047579922214
H         3.17149226672999   -2.91029628429652    1.89970936573741
H         3.19986707090749   -1.46895641868495    3.69048086712314
H         5.68632661009421   -1.05101246329284    3.12960415539623
H         4.81163577204362    0.20326158170291    4.02497416510411
H         5.59522639094870    0.05794082654821    1.09819024786612
H         4.38758239398035    2.28388591570494    0.73032639128098
H         3.86856000715258    2.27730825361231    2.34507301409813
H         2.23306033555395    1.49289779526122    0.65015707855097
H         2.27658629383730    0.70205164542912    3.12970144870083
H         1.02697016711770   -1.49766864944227    1.57394833802973
H         0.44443672839478   -0.00469852531569    1.98344390706186
H         6.61088725409915    1.19220368020778    3.42760043671508
