36
 energy: -51.095808918903 gnorm: 0.125725944568 xtb: 6.4.1 (79825abcba525fcdf90b791dcacef51065a7a4e7)
C         1.30601317881051    0.28336314395724   -0.89788053098415
C         2.63150244008112   -0.04326576578210   -0.18286242631141
C         2.88329940287601   -1.55475205375620   -0.03574197781963
C         4.08824814711419   -1.93594023271779    0.82040894655130
C         4.02785967994227   -1.28126284815522    2.20244209322614
C         5.19971977485303   -0.30024731536073    2.37124837790271
C         5.21383122817134    0.90969866525976    1.41566289962281
C         3.85175607135954    1.63127571200441    1.36005487256493
C         2.70942194471478    0.60776267469487    1.22015672042790
C         2.78278165736861   -0.41042112950142    2.36156929547893
N         1.63657270031620   -1.31149385441783    2.42913488070995
N         6.17607797028518    1.89186783571933    1.91656715923151
C         7.48074816930784    2.05963702306209    1.58852788308456
N         8.17034846042992    1.43025243120606    0.62890612764637
S         9.71730124044039    2.05195708204898    0.72826452969537
N         9.37855249645236    3.18728858488060    1.90488762951734
N         8.11291934623396    3.10034713166803    2.27184167628849
H         0.43357692783705    0.18340217274096   -0.24274266719712
H         1.05415954395678   -0.44998443268121   -1.67244622272656
H         1.33591587173545    1.26765647596895   -1.37283518838947
H         3.45014837993560    0.48087190598762   -0.69563406679503
H         2.92346567178116   -2.07826029837738   -1.00046323014350
H         1.93171347222510   -1.93689800768503    0.36054789111632
H         5.01019589428581   -1.58088646572991    0.34054252079299
H         4.17537188620768   -3.01903955379643    0.98821214830341
H         4.06738398714362   -2.02896982081778    3.01116263120270
H         6.14165681046570   -0.82751412946947    2.17057417456801
H         5.39312715768671   -0.04312246902043    3.42357592712307
H         5.56746034131018    0.51387952638507    0.45594348145327
H         3.81993709125701    2.27954678871235    0.47309793233451
H         3.73256690549502    2.32834121153048    2.20482653724938
H         1.79433245103911    1.21484457421877    1.27836911966153
H         2.86741119934612    0.20323535156750    3.26771562002393
H         0.80565003548807   -0.77305926862996    2.67877867419233
H         1.73894694559535   -2.03340600572819    3.14310748342621
H         5.83968264256256    2.54137758794194    2.62494470940202
