36
 energy: -51.090565050707 gnorm: 0.124958425710 xtb: 6.4.1 (79825abcba525fcdf90b791dcacef51065a7a4e7)
C         1.82737099754576    0.20521317528478   -1.09622298321978
C         3.03702156170780   -0.03654599941097   -0.17255793159170
C         3.27149855267962   -1.54491643043377    0.02612803460449
C         4.33646734512725   -1.89590087139994    1.06191358183980
C         3.93728488326330   -1.24662347229886    2.38907486749098
C         5.03329479497764   -0.26581935700514    2.83732555288533
C         5.14438730267963    0.95338575757176    1.90003725443328
C         3.84908485052401    1.70671001079153    1.53437545609105
C         2.76984736526137    0.66616808534600    1.18139297676552
C         2.68965771431112   -0.36877158070421    2.30716918633822
N         1.51082160231730   -1.21221343342327    2.13616218742010
N         6.17639768916026    1.89289032377385    2.34022573489818
C         7.36502430349451    2.09370617464094    1.71993516130131
N         7.48294220382832    2.08976737303149    0.38628328607263
S         9.09192270463576    2.34553210028621    0.01856352161957
N         9.58824217547182    2.32272640303225    1.61271443542565
N         8.56465530790576    2.16073256052703    2.43129203279215
H         0.97973842226966   -0.03568777840533   -0.44520180301947
H         1.87346493294205   -0.28390084864938   -2.07592893475553
H         1.71094720227845    1.26297025179720   -1.34703153030786
H         3.92258896308568    0.50211011708963   -0.53787449367310
H         3.54078847396084   -1.97282009301489   -0.94893232238387
H         2.29008032972076   -1.92138183361555    0.34813586769847
H         5.33783442751394   -1.59790834855667    0.72311123666680
H         4.23918718037435   -2.97805465731663    1.23023574977178
H         3.78819849555319   -2.03212427869702    3.14763832793174
H         6.04239377343771   -0.69563668520212    2.88734672292727
H         4.84182454814010    0.06759385562517    3.86838697249709
H         5.52931768330946    0.55940503628797    0.95167260197122
H         4.14789259317004    2.38311960267518    0.72126756382227
H         3.58772784825218    2.28320988882040    2.43608824054924
H         1.76668212904504    1.10565909498731    1.28055473632898
H         2.56369450298414    0.27808334514476    3.18497871529631
H         0.70271832338197   -0.71806301009363    1.75478212919895
H         1.17735831228609   -1.49597120641374    3.05794213849137
H         6.32343016502210    1.93198376818873    3.34704084127884
