36
 energy: -51.076973085263 gnorm: 0.130689910265 xtb: 6.4.1 (79825abcba525fcdf90b791dcacef51065a7a4e7)
C         2.04317077900599   -0.05362219558376   -1.03121294969429
C         3.19415121215789    0.16855178586722   -0.03084210718009
C         4.10326959247285   -1.06923637571497   -0.13582350066527
C         4.20301277141095   -1.87946987090657    1.15404983491896
C         3.99797318420977   -1.15219499766253    2.48494983589399
C         5.08724226451718   -0.13163621128828    2.85386132524155
C         5.04471583064844    1.12169931469351    1.95683649302698
C         3.64601636755302    1.77180117279974    1.96150471804610
C         2.73828084351381    0.68468588460143    1.35629880293531
C         2.65718008428366   -0.42383618649552    2.40962874762117
N         1.45300493514259   -1.23809486343097    2.27833864312100
N         6.04876765589641    2.11629177312940    2.33650205143863
C         7.18265871459138    2.09042985132705    1.59384273612778
N         7.26498147025637    1.58708237848374    0.35593654083497
S         8.88507264680928    1.69318983929817   -0.03585097832295
N         9.38114636964239    2.57603260315936    1.29180476325930
N         8.34877877045051    2.65792476210730    2.11128763329243
H         1.17058976763554   -0.16168031905356   -0.37755505662234
H         2.15186198451143   -0.99657217479431   -1.57912943667902
H         1.93591737744829    0.76482059117871   -1.74812128377673
H         3.81726526528728    0.98299583267255   -0.42612172089621
H         5.10433241967960   -0.68058485953493   -0.36644114731795
H         3.71624870585038   -1.72911776629866   -0.92536028317637
H         5.17274816680563   -2.39075247965561    1.22132495720012
H         3.47852251180935   -2.70533760073811    1.11035852613617
H         3.98999044549392   -1.91104428252128    3.28416244809722
H         6.06896454917146   -0.62282436531119    2.83192198979245
H         4.91117549020867    0.35650631805897    3.82423765944144
H         5.31983467818600    0.85071648922097    0.93035432922756
H         3.86180640630360    2.61877103052973    1.29514358355428
H         3.31022608898522    2.24362246152317    2.89872137823699
H         1.76218274815909    1.15998615413257    1.18123303839431
H         2.65045668385263    0.07971886583974    3.38493622624469
H         1.63852988221686   -1.93053367017708    1.55116927671204
H         0.78007621773002   -0.61176029237587    1.83531893817173
H         6.16509887863770    2.41153720637732    3.30403534306287
