36
 energy: -51.076897392334 gnorm: 0.138584273864 xtb: 6.4.1 (79825abcba525fcdf90b791dcacef51065a7a4e7)
C         1.14750526665507   -0.41520270784840   -0.39050140809491
C         2.67616773538568   -0.27646569358594   -0.25338038183751
C         3.34991115105327   -1.65822537403320   -0.17308782008530
C         3.31304707019337   -2.10614023957483    1.28575199502767
C         3.76740798612656   -1.11492878759555    2.35967976817850
C         5.28223641397359   -0.97529015513250    2.13620942579935
C         5.75032255268769    0.24168826898392    1.31330548820587
C         4.65773015336583    1.15067004971295    0.71413242787780
C         3.18833749288366    0.70407860786895    0.83040333850199
C         3.04387825484394    0.22814632058184    2.27868594591330
N         1.67200221433458    0.03476512198971    2.73787213178345
N         6.58756971302958    0.90252114148868    2.31520233498670
C         7.50220707618260    1.79179297961480    1.85633990652813
N         8.19919482013552    1.65431278291914    0.72150302603942
S         9.13996815278822    3.01335169889822    0.48189829391356
N         8.59950346126691    3.73302982703047    1.88835894432557
N         7.75971421007171    2.96855292026340    2.56242899594273
H         0.59873243722421    0.12414388928784    0.38943221093977
H         0.79217355405783   -1.40450136539984   -0.08032651407813
H         0.82302231542600   -0.15809757644171   -1.40238935542766
H         2.91004949925845    0.10268487025671   -1.25805962657347
H         4.40902781799506   -1.62958185901234   -0.46259210616697
H         2.86664088547687   -2.43934885776130   -0.77715148757628
H         3.96208203072257   -2.97621504810258    1.45322156015900
H         2.29547439897468   -2.46397943248014    1.49870636806599
H         3.71050630549761   -1.59396285355202    3.35061132538833
H         5.68954199076216   -1.90108648593725    1.70897515827616
H         5.70659175455227   -0.91926282747035    3.14996302557851
H         6.47645794753544    0.02748514088775    0.51981187519879
H         4.91424096106921    1.30008721484015   -0.34409115517539
H         4.75110727772355    2.17918438184145    1.09777875085132
H         2.59070324609754    1.59289960466766    0.58109145006782
H         3.57795271567213    0.88475304924129    2.97759198636037
H         1.14112632273894   -0.69085950339914    2.25382049653933
H         1.22438306056844    0.95047734007528    2.68784471746612
H         6.05496353887958    1.26018472397977    3.10591778984553
