36
 energy: -51.091627744577 gnorm: 0.124992146554 xtb: 6.4.1 (79825abcba525fcdf90b791dcacef51065a7a4e7)
C         1.99389485183869    0.49781631677583   -1.14673651303007
C         3.02670851831955    0.00711580441450   -0.11360146748852
C         3.13014447261602   -1.52836036219792   -0.07823428337301
C         4.23807833700843   -1.85044704992651    0.92123707590679
C         4.02216183510085   -1.17410398519731    2.27704124128787
C         5.11711899297266   -0.19281590178165    2.72680294322716
C         5.05846441344890    1.09674094079177    1.88364533390309
C         3.69051470577290    1.77601943134434    1.66845077506505
C         2.71514641323993    0.65734687526380    1.25698262411621
C         2.70365621704807   -0.40672302934303    2.35813008131376
N         1.64873962476080   -1.41378796291510    2.30100481978774
N         6.10962946471139    2.03816294170402    2.27127502916173
C         7.31948605310027    2.06236254215207    1.66006146654567
N         7.59150155307244    1.45702007844212    0.49725644551338
S         9.19313200467683    1.82227206947592    0.19588864636697
N         9.42922188421750    2.78281963059320    1.54116936190508
N         8.30388805566706    2.87484911068485    2.22614798155884
H         1.06597919815260    0.01138573912711   -0.82626707965778
H         2.26308270063174    0.24985922704848   -2.17980771456113
H         1.95392739416972    1.57810923287812   -0.98339859755875
H         3.98530068745517    0.37673276489063   -0.50388413678998
H         3.43215525100588   -1.95566953629924   -1.04392452957757
H         2.22481253352826   -1.98437494643683    0.34723220855083
H         5.17604257594852   -1.64308724868432    0.38874520887494
H         4.23777614763934   -2.88801227543219    1.28498273195823
H         4.00683987515673   -1.94076691281975    3.06865350151426
H         6.08746072906463   -0.65263476380941    2.49761019386738
H         5.05587595799680    0.07428490619021    3.79255117955524
H         5.41054671264002    0.73266042534946    0.91088064616699
H         3.85426146920237    2.50448751673082    0.86192633269148
H         3.36446220469313    2.28106396605691    2.59168709176616
H         1.72796069663932    1.12523391654590    1.13099872239932
H         2.75406304632824    0.13805120265970    3.30971705012767
H         0.67638017255286   -1.10346336355221    2.27130587952746
H         1.79486692688139   -2.08576731789139    3.05498430806925
H         6.06079073874207    2.28331513264574    3.25836097611092
