36
 energy: -51.071756935993 gnorm: 0.142960556288 xtb: 6.4.1 (79825abcba525fcdf90b791dcacef51065a7a4e7)
C         1.23274412411862    0.10698051172402   -0.32393225924609
C         2.73441619721688   -0.21726974601623   -0.20268126060430
C         2.86919017068248   -1.74175657759830   -0.03711331510573
C         3.05807072073004   -2.18152665569952    1.41241304549216
C         3.98655897341435   -1.30333300344735    2.25440488923599
C         5.43182161561222   -1.46379734167684    1.75479489958062
C         6.07173093286747   -0.11908953831208    1.35530901921451
C         5.07740855111961    0.43681759840789    0.31545103044722
C         3.61461144312144    0.61262967730173    0.76421862084733
C         3.52355890545605    0.15216509616045    2.22181399413964
N         2.24361139082708    0.45144194559299    2.85621117735501
N         6.63302057907014    0.77618279324478    2.36769310187030
C         7.33953115485437    1.81687296295856    1.86199810517890
N         7.75867418063229    2.02544003392082    0.60765908295741
S         8.52861201854377    3.50752110919710    0.59854380615024
N         8.31266390565311    3.79116252045464    2.22982680373611
N         7.57261491096298    2.84463866764959    2.77797044611431
H         1.04728509914859    1.18615413659851   -0.28743499824304
H         0.64552974857754   -0.28962078368424    0.51217036930582
H         0.83217364754250   -0.27038748777280   -1.26862593014592
H         3.14106776938019    0.10390228318467   -1.17186608740030
H         3.78165406028259   -1.95284025449846   -0.61088558783407
H         1.93394772038689   -2.14638610413731   -0.44965841371176
H         3.49260519714796   -3.17542047286064    1.24014157534306
H         2.08289862331268   -2.22567631570164    1.91832090559316
H         3.89730996527230   -1.59328172015206    3.31394305196090
H         5.48692575724214   -2.04216893459718    0.82314280599717
H         6.09733147076614   -1.97285432677527    2.46814647650148
H         6.92668517576534   -0.36919015927178    0.71555075487900
H         5.07560690914396   -0.14840279443683   -0.61485766811936
H         5.41956103734785    1.46383348246571    0.11071809545331
H         3.31488855984573    1.66456868745608    0.65056844928369
H         4.19335641791403    0.69149666755520    2.90396522441919
H         1.79038782669781   -0.35420428400088    3.29001854960656
H         1.50923828429128    1.03318169648607    2.45165031223811
H         5.98241326376944    1.01328912177687    3.11422790493039
