36
 energy: -51.102065293620 gnorm: 0.115626205192 xtb: 6.4.1 (79825abcba525fcdf90b791dcacef51065a7a4e7)
C         1.63102827702997    0.24478722471580   -1.03704126254749
C         2.85072337064075   -0.10416730749867   -0.16215058577170
C         3.05202183425798   -1.62269767394069   -0.00989636013118
C         4.09731104335679   -2.00233851262512    1.03578216478419
C         3.94552345955086   -1.26127043413478    2.36621196545274
C         5.09533252961079   -0.30934785448479    2.73489285306013
C         5.23216985631441    0.85747276816341    1.73633530709852
C         3.93846889950710    1.65895582193312    1.48538282461033
C         2.82189666364695    0.63816828187622    1.19670152062500
C         2.73241524779122   -0.33275130642893    2.37746854725305
N         1.50417335362170   -1.11621184052693    2.28856659845192
N         6.21169994534765    1.84080485159863    2.20007980515015
C         7.41560649148208    2.06465864159570    1.61834180341483
N         7.81016986701967    1.73944447109482    0.38096436644745
S         9.40663414807996    2.20418255798427    0.22357321396887
N         9.49751423040175    2.89671571715634    1.74025013585901
N         8.35267695029361    2.76085381855052    2.38440113137389
H         0.66947383583836   -0.17026831172574   -0.71535076369247
H         1.78423356533318   -0.05484014442099   -2.08008129221373
H         1.56262047951282    1.33588387689681   -1.02529714008081
H         3.70909956066869    0.23086722815132   -0.76113171041688
H         3.34262226541159   -1.98812536586876   -1.00406701302121
H         2.03983975916189   -2.03904176410671    0.09374727723975
H         5.09656934148566   -1.79753726725863    0.62852070007250
H         3.95482089277575   -3.07383512541243    1.23688947812005
H         3.83869200630559   -1.98768696512787    3.18813826816985
H         6.05322587424996   -0.84597026975510    2.73330686484432
H         4.87496124924594    0.10218076495969    3.73138347772279
H         5.58828465502969    0.42154924344085    0.79509111444337
H         4.03509666777499    2.34102581905345    0.62899270954542
H         3.61373578633190    2.21308388836803    2.38050070380908
H         1.85767032019279    1.16676830657036    1.20994743983456
H         2.84527272005434    0.26367481848818    3.29200485118610
H         0.68867318229320   -0.56430428680079    2.01833740137348
H         1.17621440049775   -1.58363930131039    3.13434967080437
H         6.27229956502677    2.07404488752617    3.18939788391139
