36
 energy: -51.091831737788 gnorm: 0.123749593917 xtb: 6.4.1 (79825abcba525fcdf90b791dcacef51065a7a4e7)
C         1.74779456635469    0.25207140577260   -1.00852701007461
C         2.92391729045477    0.09195687100430   -0.02569549543294
C         3.36083598006512   -1.38172114667677   -0.10943371936054
C         4.43743309098782   -1.68277125440851    0.93004105252890
C         4.04870457491423   -1.14405195179055    2.30878559358428
C         5.06966802645864   -0.10383647576059    2.79840637614979
C         5.10561904267715    1.11177922557115    1.85062054229678
C         3.68317017266715    1.70459658917398    1.78564985988178
C         2.63853247747177    0.64310470088912    1.39316453083027
C         2.66605434535020   -0.50212181161606    2.40933447415675
N         1.61950079754054   -1.46327823676264    2.07587362587403
N         6.12532868930696    2.10090266919191    2.20177175403611
C         7.33679983058071    2.14486086095510    1.59487313726899
N         7.76211889034996    1.12947094573650    0.83287940107040
S         9.36904839053013    1.43630494807212    0.49660251917181
N         9.37266036101287    2.98950455020699    1.10956923773790
N         8.22750966034975    3.21180851352569    1.72864287558273
H         0.98180668677992   -0.52463375667407   -0.90686833447061
H         2.04006151469956    0.09775183647586   -2.05348941717470
H         1.28106809145978    1.23613736689374   -0.91318529696475
H         3.61814049233358    0.73404528177572   -0.58570696473087
H         3.71204294741537   -1.54319304525662   -1.13751046672845
H         2.49162980257643   -1.98183207477337    0.19543423426617
H         5.30185662043726   -1.07705598779962    0.62639061240780
H         4.65008292896464   -2.75895856346967    1.00388899487199
H         4.12116568866366   -1.97698767397802    3.02685541280482
H         6.07986143898207   -0.53373703461352    2.78355441817182
H         4.79741805895854    0.28184900144626    3.79240815636659
H         5.30801272206459    0.84707368753547    0.80574951037666
H         3.72283382787775    2.46646245666195    0.99448133052319
H         3.43178238997311    2.17141129987628    2.75137950092940
H         1.64084962653715    1.09777934861604    1.47816913992889
H         2.45938941150655   -0.09113056386251    3.40593539393580
H         0.86723411500976   -0.91449940448608    1.65682358738042
H         1.22988579887067   -1.75417660204767    2.97307639780727
H         5.89328744068452    3.04874659170693    2.49258482023757
