36
 energy: -51.090084704488 gnorm: 0.124329252486 xtb: 6.4.1 (79825abcba525fcdf90b791dcacef51065a7a4e7)
C         1.65702296870461    0.24912642130608   -0.94329507061195
C         2.93894439435910   -0.00966695014342   -0.12808800685887
C         3.09988488025638   -1.53656392531804   -0.01708934546812
C         4.06297672060395   -1.96580510624752    1.08672513401412
C         3.84283678998981   -1.21357703791941    2.40124260626560
C         5.04375736191076   -0.30705413517961    2.71770605496749
C         5.25977782264573    0.81540470914698    1.68294360860843
C         3.95384734677735    1.63167573450884    1.59772832422776
C         2.79701260851036    0.67483649334903    1.25382464886913
C         2.56770485056533   -0.37401680839976    2.34571624322070
N         1.35417620391569   -1.15041456246267    2.11152216238583
N         6.27128521161169    1.76382637517365    2.15073555863902
C         7.50194029729141    1.99586715025808    1.63153833977418
N         7.91808827585318    1.59456856849505    0.42392591634539
S         9.39203254083745    2.32998062911183    0.14804718171780
N         9.50074638727279    2.98782303239927    1.67892762261153
N         8.42760542909807    2.70866028352104    2.39619884397983
H         0.81725867195565   -0.37959752795693   -0.62731255949440
H         1.99401518735280   -0.16663466848197   -1.89972588097994
H         1.44549943720709    1.32161272639907   -0.96174446291892
H         3.75663557238100    0.42248866192931   -0.72177048109351
H         3.46628484857207   -1.90084215088608   -0.98632292886855
H         2.13988198769160   -2.05171738375063    0.12990835245988
H         5.07437857628311   -1.77024101657618    0.70574800171354
H         4.05700129300196   -3.05554762462211    1.23259537439329
H         3.87090965312431   -1.88212453964984    3.27697826236769
H         5.92410507124336   -0.96118794914055    2.76891802365133
H         4.95832394351317    0.21728865357663    3.68138579871312
H         5.41832037076210    0.52295922789340    0.63789451634328
H         3.85302323983548    2.36913445475488    0.78905683009650
H         3.64814206739655    2.12227369845696    2.53560009464312
H         1.98639376454091    1.41491219582813    1.18666114460889
H         2.47541651107522    0.07298787810815    3.34396834396784
H         0.60057219026967   -0.72022248301968    2.64974336575857
H         1.40753014354094   -2.14053007978847    2.35280857249766
H         6.15237541374997    1.97414509984410    3.13990187018362
