36
 energy: -51.089360765735 gnorm: 0.135564544826 xtb: 6.4.1 (79825abcba525fcdf90b791dcacef51065a7a4e7)
C         1.70153676214139    0.41649813583853   -1.07530282555268
C         2.86047280414631    0.09158787237012   -0.11293089563190
C         3.21525127763480   -1.40528952778165   -0.16885294484534
C         4.38355690465875   -1.65967590955274    0.78012012667617
C         4.19144549068624   -1.08287304619119    2.18463306423012
C         5.24709903347285   -0.03771278297115    2.58134304541547
C         5.02203850734812    1.16431368350181    1.64230514139393
C         3.56631916101470    1.65348545666192    1.78585521164961
C         2.58255470801082    0.55635891854470    1.33797285263999
C         2.78933488491971   -0.51901178302379    2.40835711501835
N         1.76710202798543   -1.56049831669683    2.43361527784975
N         5.90907136304173    2.32236433579811    1.75880222565934
C         7.24180788980904    2.20167953655813    1.54161768634420
N         7.73441426611971    1.22443019708948    0.77033944988840
S         9.39451226750629    1.37797277859486    0.67058495829519
N         9.40984889693627    2.85947123810407    1.44071309654406
N         8.21953854189760    3.10843658103515    1.95570714002651
H         0.81968846884471   -0.18274043881849   -0.82311329952181
H         2.06816425710802    0.31523580896546   -2.10317011464462
H         1.22812948138926    1.39238732891977   -0.93806106307469
H         3.69365917323014    0.68816259217828   -0.51008997412792
H         3.36112889138989   -1.62563824201332   -1.23493338048256
H         2.33694322366654   -1.92219721695644    0.24343141906274
H         5.29205470998067   -1.27474756709931    0.29764262117075
H         4.57018662105348   -2.73942668145305    0.87045418443109
H         4.31453905528554   -1.94365847061300    2.86179867242835
H         6.31343195208864   -0.27319138369851    2.46728270668219
H         5.13263834280027    0.41816004941951    3.57632626761380
H         5.21870675745068    0.79010378096133    0.63033860409949
H         3.44963982452389    2.57589627727546    1.19976248954889
H         3.39414752506447    1.89314417589262    2.84730053857881
H         1.58122584674850    1.00013969200540    1.43658861472570
H         2.82763556807625    0.00364316795125    3.37282717316618
H         0.86765622055986   -1.12405258482874    2.64141006464981
H         1.93907397726855   -2.24724491295273    3.16859778712044
H         5.90266898026818    2.86127864797545    2.62271997497189
