36
 energy: -51.087054035281 gnorm: 0.126403140781 xtb: 6.4.1 (79825abcba525fcdf90b791dcacef51065a7a4e7)
C         2.00238229571047    0.36209169295710   -1.10477014476788
C         3.15462566613795   -0.00419597762256   -0.14924534407986
C         3.03612779495553   -1.52847884399217    0.03007807995095
C         3.88875365834000   -2.13865321473334    1.13954491069971
C         3.73447372790988   -1.34422480918730    2.43852375175912
C         5.05249392984480   -0.64794856473723    2.81557176602866
C         5.43676977460240    0.55671866117545    1.93329011036456
C         4.23261469672705    1.49589562979999    1.71656089378357
C         2.99286412249592    0.74419679041678    1.19690234783237
C         2.65695386771400   -0.27106931094588    2.29294138558584
N         1.37317696597916   -0.91202345537208    2.02575837408582
N         6.55248106416547    1.31832570764307    2.49598288962330
C         7.50025850234163    1.90580051994983    1.72493692040045
N         7.76265355376953    1.56508328228477    0.45702207420296
S         9.09176299090818    2.47291392140124    0.01119328778114
N         9.03845956926980    3.48290190677277    1.33982162815553
N         8.16437125205739    3.02984716917247    2.22002182062577
H         1.03826346709865    0.08317974133905   -0.66542309489840
H         2.14743679122089   -0.32327703369038   -1.94762827642735
H         2.06251144448259    1.41913747993640   -1.37743870499726
H         4.06914171962409    0.17028657408612   -0.73324228607021
H         3.34478495221752   -1.95596970213393   -0.93342782109025
H         1.99742141519626   -1.87289019902609    0.13527708999657
H         4.94790337577989   -2.07903595894553    0.85499218082376
H         3.51938444344979   -3.14493421027480    1.38412112970740
H         3.32672377348534   -1.95377783169581    3.26122774461283
H         5.89710223662737   -1.34948558166037    2.81847175914636
H         5.11310694879119   -0.42615507142539    3.89169748385696
H         5.82638632154625    0.07929632141030    1.02606657461825
H         4.42915350016571    2.32356003519757    1.02064095679686
H         4.01792579986280    1.79862502053666    2.75386949001292
H         2.16976156936473    1.47173544178732    1.14674692580702
H         2.70164345079974    0.27359148383265    3.24487890434527
H         0.62507874414026   -0.21786655431931    1.99167695298116
H         0.99388663633465   -1.52243441812210    2.75028015602610
H         6.36868165867188    1.95248048585187    3.27115318665936
