36
 energy: -51.086056679722 gnorm: 0.135965298063 xtb: 6.4.1 (79825abcba525fcdf90b791dcacef51065a7a4e7)
C         1.71892832377424    0.32849856158607   -0.95346868341544
C         2.92853766436203    0.08516048095256   -0.03016430091728
C         3.29346352280622   -1.40682320397585   -0.13239342103319
C         4.47733441895368   -1.54144018096553    0.82182265853056
C         4.20766599312587   -1.02770479153693    2.23802173197015
C         5.22636556623406    0.05627309022911    2.62710567912368
C         5.02531885913185    1.31763774184426    1.76347872931733
C         3.55944000778968    1.79072361558481    1.68345734631341
C         2.61449606834453    0.60978591094937    1.39269138965530
C         2.77331068293280   -0.52881121584602    2.40426301546369
N         1.81328437915310   -1.62159519204087    2.28399305974775
N         5.97032152621444    2.37987885550700    2.11002451256517
C         7.23894558864047    2.17618174150284    1.67756515760203
N         7.48060839680392    1.40551497486841    0.60975465124613
S         9.09893938649291    1.49151862405679    0.20594796088451
N         9.48746043625277    2.36935907223104    1.57219017628852
N         8.39943919691738    2.71620462791924    2.23547691465937
H         1.68903229308845    1.29643280248710   -1.46586732937380
H         0.77174168478261    0.26137134928415   -0.40619146699666
H         1.67398653208331   -0.35191669121495   -1.80805910658723
H         3.76712137812439    0.65056753765675   -0.46019740584916
H         3.64140181698803   -1.59099362839129   -1.15776239156662
H         2.45335495609725   -2.04994719505536    0.16628051762834
H         5.40634403351921   -1.16888231511826    0.36964525408877
H         4.85985524685260   -2.57032200301219    0.88453336745796
H         4.42158001024701   -1.82905944625837    2.96378225926673
H         6.24863340879482   -0.31790028874243    2.48396740486439
H         5.08190282082080    0.38642951341267    3.66683648715294
H         5.43274986746063    1.15918264091862    0.75765583443689
H         3.46030105689688    2.59503993267283    0.94102404862613
H         3.39998898904541    2.28797154305692    2.65354261738202
H         1.54414329650459    0.85656630695185    1.44532513033875
H         2.82662508427648   -0.15322801549797    3.43427877520835
H         0.93005635546640   -1.26551034810983    2.65247393026255
H         2.13355278350263   -2.35805658362755    2.91363366723112
H         5.76127341319676    2.88377795472983    2.96979661953427
