36
 energy: -51.079238482821 gnorm: 0.124409715750 xtb: 6.4.1 (79825abcba525fcdf90b791dcacef51065a7a4e7)
C         0.82726994283353    0.25180217832189   -0.34393265094801
C         2.34018600759865    0.09493069501222   -0.09627276069275
C         2.91718104354812   -1.30149911203891   -0.39071704027120
C         3.75193941482483   -2.03346578461979    0.65694871706930
C         4.10758826310164   -1.26552865809064    1.93211588705368
C         5.40626758495444   -0.44928831767673    1.82568829507666
C         5.32004695494095    0.92558536321765    1.13315643530799
C         3.93553776385428    1.59969497394369    1.22104805059849
C         2.71903268979742    0.65809294202292    1.29573860937579
C         2.95751465312338   -0.37548719563334    2.40015746093420
N         1.87177727966006   -1.25641774933693    2.81899852924686
N         6.24079811376238    1.73534462760061    1.93189755284925
C         7.52402145216434    2.08789848150534    1.67312308959558
N         8.13095989593823    1.93527304096966    0.48953590334107
S         9.73218922691748    2.31048467559261    0.78062441697410
N         9.55144995478941    2.71637485068928    2.39020719881414
N         8.28523849112046    2.57475897129266    2.73761880885992
H         0.42622171050977   -0.52290497219982   -1.00675387279788
H         0.70018603337705    1.21315417668693   -0.85465072075503
H         0.24809698264856    0.27198794298116    0.58313836864209
H         2.86185304666662    0.72131493689874   -0.83339046269741
H         3.39257201079847   -1.33433909790123   -1.38030597755892
H         2.13210796485351   -2.00289844331895   -0.70741280368120
H         4.68356983079127   -2.43300693690343    0.23415533977836
H         3.22279877976989   -2.96111864674028    0.91833530912122
H         4.33522392769014   -2.09454914217894    2.62172725274674
H         6.20104370962900   -1.02394908055784    1.33210778440919
H         5.75509405690656   -0.44738315689784    2.86934980138546
H         5.66677638402246    0.74777379044010    0.10799818522277
H         3.88832374609845    2.25161220722229    0.33745583582556
H         3.87785498951603    2.24473389521462    2.11230728480910
H         1.86828759921675    1.29126242122373    1.58669408700285
H         3.20347791342208    0.14934751444132    3.33229918286946
H         1.35257583953007   -1.63013066832653    2.02311234513701
H         1.15635537603452   -0.73284942500887    3.32441145579684
H         5.97656556992967    1.85652069704037    2.90776691035067
