36
 energy: -51.087113226505 gnorm: 0.148187435644 xtb: 6.4.1 (79825abcba525fcdf90b791dcacef51065a7a4e7)
C         2.00413561610149    0.06278459628555   -1.10766065298711
C         3.19689829494776   -0.11634006251239   -0.14844711161849
C         3.24300847906750   -1.63989584800706    0.06670045475669
C         4.08916896114770   -1.93226854760523    1.30311902640326
C         3.69571912151827   -1.11738803387022    2.53739279723672
C         4.93395663033277   -0.37766191966772    3.07004297655169
C         5.38741518187844    0.56633578680508    1.93842659020375
C         4.27575631183456    1.49929597473701    1.41611039665066
C         2.95799665840942    0.76699265580817    1.10096131325338
C         2.59168304653073   -0.08403167852370    2.32017187241578
N         1.32744619016636   -0.79236797335119    2.14622666243212
N         6.43875322700896    1.43727096568525    2.46534248287625
C         7.42760671982215    1.94057200728797    1.68638329058231
N         7.26448787483288    2.13460045630877    0.37173784844075
S         8.78122471291535    2.60142393625394   -0.14887416911301
N         9.45768274105513    2.66693184405396    1.37634171747327
N         8.63416710160511    2.24626118678724    2.31915641271379
H         1.96560205269861    1.04764395631801   -1.58610607409115
H         1.08976619426570    0.02880116794231   -0.50437414563580
H         2.08394005077759   -0.66963863166928   -1.91543346596766
H         4.07298070399785    0.23491726478754   -0.71141610494493
H         3.74397864702890   -2.10308547283036   -0.79402339171141
H         2.20905508430961   -1.94698136409768    0.27938756978868
H         5.13020774343948   -1.84816905022015    0.96328361799702
H         4.11507057580215   -3.00029667279221    1.56292202087933
H         3.51141626588005   -1.78903951497810    3.39154354439173
H         5.74835140059467   -1.09778997982473    3.22399921126815
H         4.73001866422784    0.21783928552427    3.97265057160022
H         5.76084376501699    0.04167139766529    1.05069575007313
H         4.64371503370046    2.09250373106721    0.56718675257624
H         3.93355431030811    2.15710363916182    2.23093085633200
H         2.12032563739707    1.46795518615505    0.97335007823734
H         2.62428368678540    0.60253743478262    3.17597418627628
H         0.56989440223962   -0.11246962124272    2.06548133222219
H         1.24704450676651   -1.54595141545769    2.82963142497659
H         6.62992648140527    1.37374950019248    3.46346135567144
