36
 energy: -51.099054415800 gnorm: 0.122276583319 xtb: 6.4.1 (79825abcba525fcdf90b791dcacef51065a7a4e7)
C         1.71908573126330    0.31027993251627   -1.06748908588506
C         2.92355264683058    0.04479272547288   -0.14356534675095
C         3.12892273747160   -1.47483338115454   -0.00867088560461
C         4.20587649108108   -1.94831973434498    0.96404775485095
C         4.03711986974844   -1.17110462431101    2.27161139321241
C         5.14286192185955   -0.13885967531039    2.54719791086222
C         5.15685074011804    1.09930594235068    1.62846934624598
C         3.74017489898752    1.70370366474744    1.54632719969362
C         2.67448166674566    0.62670286554040    1.26984060329456
C         2.70388409194732   -0.43244506915981    2.37539188758798
N         1.56436371936003   -1.34100033722401    2.29593918324523
N         6.06432834452272    2.13405715142283    2.12571623441091
C         7.30079583948023    2.16437459685379    1.57060402177341
N         7.77105508006376    1.49891177520586    0.50826560805041
S         9.39573620948759    1.84669177170729    0.33823043343402
N         9.48064468102283    2.81334015215566    1.69710927596349
N         8.29850569482991    2.82995859911317    2.28559257541524
H         0.86982431420013   -0.16082091157586   -0.56037779197037
H         1.83766978925360   -0.16404098277800   -2.04837563060311
H         1.56046549443729    1.38648496128535   -1.17672191181831
H         3.83191136444371    0.54623948457369   -0.50587984174492
H         3.42524648677701   -1.85165953442596   -0.99687915279287
H         2.20413323664953   -1.85404728894882    0.44910433694924
H         5.25257709682443   -1.81464288957278    0.65930043113977
H         4.13088051308703   -3.03271521005900    1.12931913327647
H         4.07684678618726   -1.93248162296281    3.06746540557802
H         6.09106317276755   -0.69197910201539    2.52485817242776
H         4.95775494361608    0.18666052399967    3.58193694233595
H         5.54606215618225    0.78229643244051    0.65337595195761
H         3.79309637758776    2.41014419172317    0.70602872202895
H         3.54629044248151    2.30813259636576    2.44678263749667
H         1.69241021895399    1.12148350537307    1.26251586343466
H         2.74002204825802   -0.03990553289456    3.39981578532526
H         0.78799348545502   -0.79011424048178    2.66531712608761
H         1.71287358615256   -2.17336139916056    2.86735356042383
H         5.96153908110440    2.46743643648194    3.08233323864117
