36
 energy: -51.097228329095 gnorm: 0.112962276244 xtb: 6.4.1 (79825abcba525fcdf90b791dcacef51065a7a4e7)
C         1.19693326066155   -0.71808695226687   -0.39976402155261
C         2.60506123162519   -0.10292936937107   -0.28307703482896
C         3.68191579583698   -1.19945659724433   -0.37053669558067
C         3.70504352739930   -1.98028658991611    0.94093953995627
C         3.80093864569053   -1.12704031217946    2.20784116988437
C         5.14611674110477   -0.40618803141329    2.39495336307812
C         5.34353567675618    0.81372585193970    1.47291872206824
C         4.04210727439531    1.55495004675356    1.10429263521991
C         2.73315494268552    0.74962439505483    1.00343617334721
C         2.72176305990966   -0.05045259112854    2.30905846205297
N         1.47154765761172   -0.60680575646459    2.81672439791852
N         6.28432837681166    1.69635209765436    2.16383127769803
C         7.56346118000186    1.94100305478685    1.78715396133499
N         7.97698792766732    1.69165277963902    0.53840757604160
S         9.46002067419732    2.44298305994516    0.37850649914205
N         9.53621518438939    2.95240402783080    1.96685624875219
N         8.42038359241484    2.66985300825147    2.61425577166071
H         0.49794995893505    0.10935304860889   -0.56440973945687
H         0.81901084384682   -1.27915510538339    0.46253412738652
H         1.07663908743322   -1.39681317669124   -1.24839201919270
H         2.78705563261178    0.56093309238299   -1.13981554882778
H         4.66348573541678   -0.72695548759855   -0.51062399893756
H         3.44797698138370   -1.82155748926403   -1.24624216754030
H         4.46374346652596   -2.77430519749876    0.95615299776455
H         2.70891356006518   -2.44560736067338    0.93357337236914
H         3.63776143757941   -1.85302514674508    3.02084547726919
H         6.04154134005061   -1.02008094838636    2.23101414060713
H         5.14813107368521   -0.13700910229488    3.46193579826679
H         5.86286271851111    0.46425571311240    0.57238679656188
H         4.23297470713899    2.06777753636981    0.15112002584001
H         3.91988104777212    2.27185767458391    1.93184911889842
H         1.84249721103425    1.36620391299178    0.81400445448427
H         3.07257716957090    0.60784771630926    3.11429615841452
H         1.35570529884327   -1.58070034070223    2.53251289060061
H         0.64731979598861   -0.10885383848482    2.47895697818756
H         6.07072818071286    1.90922574476823    3.13639657565254
