36
 energy: -51.095907154780 gnorm: 0.118169987588 xtb: 6.4.1 (79825abcba525fcdf90b791dcacef51065a7a4e7)
C         1.81285273952731   -0.45508938363719   -0.90933072701816
C         3.14057498582851   -0.08490023540609   -0.22014809929946
C         4.02756592475610   -1.31506170224650    0.04364482818357
C         3.77612604947826   -1.97706662357610    1.39594942849158
C         3.63480698001107   -1.00948812808365    2.57327078769164
C         4.81626822268039   -0.11869229196449    2.99133201178763
C         5.34387768105015    0.79330146380406    1.86562882226992
C         4.13048841410259    1.62622764077816    1.40418014274892
C         2.91213190033760    0.74679937879513    1.06611067215548
C         2.45454307439186   -0.09009611239126    2.26407598283273
N         1.19370966840524   -0.82473677120238    2.29398084164785
N         6.43753646042025    1.55107153323155    2.47487030880287
C         7.47778347279234    1.94237863096948    1.69854204612004
N         7.67052746221857    1.47678552698568    0.45813070001893
S         9.07966966478551    2.18232914431101   -0.09502220289096
N         9.43401147980357    2.96664557177322    1.33587257853266
N         8.51717368821016    2.69628568698247    2.24711094823513
H         1.66885854508675   -1.53914027804776   -0.97598014021135
H         1.62204473424523   -0.01160556893796   -1.89324908155552
H         1.08250164591989    0.01870026168820   -0.24795329577765
H         3.64941852780702    0.60214709976434   -0.91071337984460
H         5.11090449406922   -1.13952642535858   -0.00024359525388
H         3.84097968939595   -2.05492080943234   -0.74780386264370
H         4.62108088429700   -2.65985414450877    1.55773669650882
H         2.78039127871916   -2.44031368198127    1.34334701940014
H         3.30225402823664   -1.62872106703623    3.42216175654388
H         5.63746891694340   -0.75733264664510    3.34246405976775
H         4.48893688252712    0.46410281586877    3.86546983123339
H         5.75312056281831    0.22755180896865    1.01991297254100
H         4.41295899484514    2.24878598917483    0.54360364464417
H         3.83788523243918    2.25592802474379    2.25952003680488
H         2.13777611015898    1.49549399082862    0.84440060729085
H         2.38181870453527    0.61917730145398    3.09862973357578
H         1.08191672591339   -1.35139316092053    1.42633939655712
H         0.43007980853852   -0.14778557063430    2.29297195977157
H         6.07021009091640    2.23145195992056    3.13742394796115
