36
 energy: -51.092202558972 gnorm: 0.128917511697 xtb: 6.4.1 (79825abcba525fcdf90b791dcacef51065a7a4e7)
C         1.81697707579828   -0.48447254411078   -0.92075532251393
C         3.07831346610639    0.03934334693815   -0.20695810277830
C         4.06956949707963   -1.12537665024784   -0.03238532656200
C         4.04370105464813   -1.83748986333836    1.31758720198174
C         3.87142596861404   -0.94635072103375    2.54984411790827
C         5.11451239790742   -0.07469531274809    2.79294087437667
C         5.13134578624948    1.08863405476367    1.78116352318370
C         3.75337453181215    1.77080365145566    1.65928546706309
C         2.74143764639545    0.73478094560204    1.13514968302625
C         2.57285164225740   -0.16339052862841    2.36387635150464
N         1.44125759198542   -1.08406500837824    2.41019561993072
N         6.12046685439658    2.03872322109022    2.29150679154166
C         7.32025687655425    2.03855224436004    1.66029803273149
N         7.59545386907141    1.27992920962013    0.59197918054320
S         9.14051961992031    1.64157929319165    0.07098713504907
N         9.42617856416835    2.79358668463357    1.24548625795348
N         8.31095638343381    2.98589548076707    1.92617574144752
H         1.07472271578208    0.31438555339332   -1.02671294841938
H         1.30606669044596   -1.26683939019701   -0.34799567693594
H         2.05395365041837   -0.82043116267175   -1.93381176439081
H         3.56809828764548    0.77581274646696   -0.85930757564299
H         5.07948479419424   -0.75895103852811   -0.26078112747330
H         3.83838309489491   -1.81084115373820   -0.86020668825272
H         4.91940869929649   -2.48897581777733    1.44016268839315
H         3.16887946968554   -2.50289100316292    1.28963919371035
H         3.81702253689983   -1.61006763302024    3.42801089553440
H         6.06196866831799   -0.62146010841048    2.88728412425152
H         4.98251240705933    0.40384310442287    3.77502531725099
H         5.42328281436228    0.89554164756673    0.74180035776855
H         3.79799415365080    2.62886589739285    0.97393978733435
H         3.31079756294852    2.12468875991048    2.60407987612046
H         1.79160055323118    1.27264573000013    1.00159510352055
H         2.50247236428189    0.47566993120292    3.25353136415193
H         1.43822251585652   -1.84029956599758    1.72407145806625
H         0.56054980913376   -0.61565292377893    2.62545922892551
H         6.02305618217643    2.74543470039085    3.01806960985929
