36
 energy: -51.085641130983 gnorm: 0.135125520522 xtb: 6.4.1 (79825abcba525fcdf90b791dcacef51065a7a4e7)
C         2.10949013988314    0.32629724203935   -1.32783568712516
C         3.16983135530407    0.04593037624993   -0.24527844295235
C         3.25958463418897   -1.46663562792964    0.02624599166929
C         4.29389274504855   -1.84575558868986    1.08297454031263
C         3.89687447212730   -1.20075673900062    2.41286852987931
C         5.04013268690214   -0.32492859247541    2.95141196968211
C         5.26072606475108    0.88247855033664    2.01823525970175
C         3.94946399486515    1.61584422284821    1.66926361335896
C         2.85773770334625    0.66816270279327    1.13812205556244
C         2.62997225304521   -0.36334095140735    2.24673648679098
N         1.39551043934341   -1.14123105016723    2.21091278000112
N         6.29601586084274    1.71439104638753    2.63270818625790
C         7.37248404182394    1.94605506998024    1.84184233639772
N         7.33315630831548    1.78225896870459    0.51362107611331
S         8.79746344506048    2.28813133459473   -0.11035764943764
N         9.45752361887549    2.65312335876997    1.37936435440349
N         8.53610604062222    2.55185599009368    2.31998965110248
H         1.15848199858930    0.11472298393304   -0.82667433115660
H         2.11956002159592   -0.30009100551485   -2.22712281146447
H         2.02823299279407    1.37867451433059   -1.61280735312893
H         4.17694340072699    0.27098777948337   -0.62331390827753
H         3.50105838796489   -2.00932585575620   -0.89762580894579
H         2.28227868374670   -1.86871958780477    0.32922881976739
H         5.27095545261514   -1.50409793273311    0.71563112798926
H         4.49930814755129   -2.91481769113066    1.23712834697316
H         3.76024759894713   -1.97936068685322    3.18083069847177
H         6.03256633474639   -0.75834732821212    3.13238031144091
H         4.70688893869847   -0.01890473927898    3.95451264193642
H         5.74031900944039    0.55627339707803    1.08744601928270
H         4.19121473253645    2.20859188363690    0.77586151249413
H         3.54294270243740    2.31908889715690    2.41353036255396
H         1.93734318854247    1.26558931116770    1.06544883527339
H         2.57679152129653    0.21104833515631    3.18059217888453
H         0.51774654339077   -0.71153324145003    2.50681255595042
H         1.56461010654916   -2.02984653641017    2.68331342468608
H         6.44664016426490    1.74926267120991    3.63914737872539
