36
 energy: -51.090484438289 gnorm: 0.129547823325 xtb: 6.4.1 (79825abcba525fcdf90b791dcacef51065a7a4e7)
C         2.45144619295475    0.32867218658769   -1.35221669910107
C         3.27671518891380   -0.28486718800224   -0.20445381230649
C         2.92460392242989   -1.73700158545406    0.16562765975512
C         3.81234112758769   -2.22301952498017    1.30839164934904
C         3.70709389627959   -1.29401215469503    2.52005711251466
C         5.05274308572084   -0.64938849144237    2.89131406406697
C         5.40065193377914    0.49306880408830    1.91608958345030
C         4.24917469304893    1.40796900146514    1.45125389073251
C         3.02576400946353    0.55157432490764    1.07451503810340
C         2.66981349986893   -0.18245077099221    2.37043516790025
N         1.29376640715512   -0.65571697545332    2.25727315180287
N         6.53957753178375    1.24386782163294    2.44583431942358
C         7.39352013671521    2.02076422553323    1.73510607403406
N         7.36673958715211    2.12700553715018    0.40073616418039
S         8.76316143153611    2.92312272364870   -0.05275598760205
N         9.35788072855650    3.02141346388132    1.50442677034607
N         8.55021572733436    2.45740445287215    2.38397918338456
H         1.35794815898449    0.31596548104688   -1.28555772750494
H         2.59136372300369   -0.10776799098307   -2.34776880198056
H         2.61749617879305    1.40473444974633   -1.45134727491624
H         4.32061684208959   -0.18666071302046   -0.53378807771571
H         2.90968978747132   -2.41555199805829   -0.69791632624323
H         1.86594703741727   -1.65572569752984    0.45064837527191
H         4.80337675357122   -2.43598806369937    0.88552594955213
H         3.40762491520007   -3.20675221834714    1.58646965785277
H         3.39342932042650   -1.86293502715206    3.41033690178068
H         5.91034477566374   -1.32164388251880    2.75671153040031
H         5.05210501539467   -0.27384383763799    3.92566346703414
H         5.64532154226536   -0.00160679366013    0.96834459970905
H         4.63453296327964    1.97957324997906    0.59525854006860
H         3.88045494465882    2.11181701668151    2.21439821401726
H         2.25427957134102    1.29014383206433    0.81249834040893
H         2.82235873522931    0.44186800214433    3.26026302865303
H         0.55418071131345    0.04444912442372    2.33107512920414
H         1.04266716986079   -1.34092575591384    2.97059819621254
H         6.57931113983640    1.45234866306890    3.44171607799676
