36
 energy: -51.089681424533 gnorm: 0.128352193651 xtb: 6.4.1 (79825abcba525fcdf90b791dcacef51065a7a4e7)
C         1.56883982642022    0.16288374581858   -1.05024906214203
C         2.77444453109249   -0.18723971737822   -0.15649856103115
C         2.95418992854411   -1.70422240063053    0.03348050502976
C         4.10521066725502   -1.89542005570703    1.01775435312804
C         3.97092603263715   -1.04911962573669    2.28582692888698
C         5.15575579222257   -0.10913662210596    2.56287116353544
C         5.18837791315142    0.98691451510107    1.47893401871421
C         3.77687742476874    1.59082256136654    1.33069145921708
C         2.62968149363262    0.57363532428402    1.18457750366483
C         2.63605202478989   -0.31989872785942    2.42814449427240
N         1.50700305898300   -1.24159063477361    2.50576264954212
N         6.17039236286940    1.96216804627319    1.95433734804234
C         7.47908962970517    2.04976755831191    1.61146945245491
N         7.97249570717707    1.80662390745685    0.39082247063983
S         9.57942615475467    2.26009372798117    0.35093107889060
N         9.60312613378877    2.64701274657401    1.97509308917748
N         8.41702336317522    2.50786429885108    2.53886546180598
H         0.69782891730007    0.04471263459160   -0.39624721848567
H         1.44641257902436   -0.52721149497903   -1.89284093018441
H         1.73908552241074    1.17678297213248   -1.42218214862243
H         3.59751792099360    0.30295342942529   -0.69510518045834
H         3.18216746446995   -2.18867641096229   -0.92552515470747
H         1.96302561199835   -2.14734632409260    0.20619833118325
H         5.01651688161139   -1.65266749613812    0.45480250652464
H         4.14821667701536   -2.96606277621289    1.26418332356096
H         4.02368515817531   -1.69346210957268    3.17840523670373
H         6.01630337583688   -0.77484469479186    2.41516731870822
H         5.08115818312630    0.38324676410438    3.54414924670397
H         5.48031289837187    0.60095171977103    0.49476208756565
H         3.87085497259875    2.23261510225223    0.44343106773329
H         3.54961643207456    2.18034886333998    2.23321941845832
H         1.72191865049022    1.19397348305384    1.20632774823743
H         2.65866690460766    0.32349295684444    3.31717390299000
H         0.60403110931597   -0.78520820516780    2.36783863939189
H         1.50744305671303   -1.55967009892286    3.47541195619734
H         6.00539001738151    2.18752489491408    2.93352681543278
