36
 energy: -51.090146501359 gnorm: 0.119923237310 xtb: 6.4.1 (79825abcba525fcdf90b791dcacef51065a7a4e7)
C         1.28767364253537   -0.54313807424043   -0.56580588888564
C         2.78738870382429   -0.26119985479125   -0.35080667782099
C         3.59477918754232   -1.56335880821543   -0.20201299517238
C         3.49015868653738   -2.19367900796663    1.18433157741751
C         3.70230045508275   -1.19043513976652    2.32044883789003
C         5.09858823307274   -0.55318423773897    2.41229004078314
C         5.43430777532256    0.61004123600356    1.45755925926572
C         4.20397246539880    1.40993026567885    0.98272568454826
C         2.87689583521055    0.63155485300554    0.91147286544970
C         2.70959950699067   -0.02982998994131    2.28241580276107
N         1.41574613272450   -0.42846960676358    2.82768820483077
N         6.46080357363514    1.35829195551963    2.18413158832949
C         7.57215738233667    1.99611386453168    1.74141665745994
N         7.89285363929809    2.01889810226673    0.44173121928291
S         9.28411321910610    2.93651622115509    0.33298638643074
N         9.51199326127016    3.15385036775633    1.97280552473054
N         8.49529124625683    2.59325397996016    2.60216238496496
H         0.80291895454150    0.23858414510748   -1.16100844681157
H         0.65573392739892   -0.60761419809534    0.32732117329060
H         1.04266774318923   -1.44516807471318   -1.13292443093410
H         3.26058194999374    0.24489087855969   -1.20391659347202
H         4.65860928111307   -1.33836660792445   -0.35694956043466
H         3.28294836062174   -2.34484718691148   -0.90956822813109
H         4.14919455132389   -3.06778073277494    1.27344104994142
H         2.47767374171222   -2.57447779848335    1.38110329280655
H         3.60129390301632   -1.70620700085819    3.28917678927437
H         5.84949904745402   -1.30560444753260    2.13747633121654
H         5.25598440441564   -0.33843886550013    3.48000898035588
H         5.90810694219037    0.17267508661888    0.57042178994869
H         4.50324752631470    1.79551242157392   -0.00201858337943
H         4.05784702674619    2.24152770709999    1.69042517687399
H         2.07966171365823    1.38900913319292    0.90889592679002
H         3.06406219100050    0.75452406336912    2.96357841854082
H         0.98053450531488   -1.29911597705161    2.51909133882207
H         0.77403347722150    0.35923402699771    2.73217713547511
H         6.34287455791463    1.55427780334375    3.17635423361354
