36
 energy: -51.092685556318 gnorm: 0.128759558618 xtb: 6.4.1 (79825abcba525fcdf90b791dcacef51065a7a4e7)
C         1.65389463716749    0.35197638471174   -1.02082658376440
C         2.81045536569254    0.09736787347233   -0.03472269959332
C         3.29310336167834   -1.36346234950102   -0.08632575663432
C         4.51966495177823   -1.51836387049502    0.80908055985864
C         4.23622549992166   -1.10846934295152    2.25611663125452
C         5.12751920039933    0.08987551808587    2.62177799721752
C         4.94754561330350    1.27525609225989    1.65234805291553
C         3.49463955464912    1.78078494087167    1.76423619428943
C         2.57983772770083    0.59211321725489    1.41455805650170
C         2.82004004303685   -0.55412816422715    2.40113601861919
N         1.77547832243340   -1.55062906341853    2.18626656393181
N         6.01347765620145    2.19955347343456    2.04086234396582
C         7.28232978244990    2.04834079436105    1.58801623921485
N         7.76024090711741    1.05948630003026    0.82230403907805
S         9.36785200078863    1.38181118598756    0.50427117622629
N         9.37147729261070    2.76412557421738    1.44094830273009
N         8.19534003179936    3.02944338215265    1.97978869039098
H         0.79295493960247   -0.28818807343578   -0.79875649869745
H         2.04954822389020    0.04904548189762   -1.99697822987159
H         1.32560110626074    1.39210775743660   -1.09605646728272
H         3.61941631406784    0.69614517602719   -0.47617953739466
H         3.46054243522348   -1.66030673983231   -1.13045642847670
H         2.47345335646216   -1.94941217108895    0.35348515751446
H         5.33984415210403   -0.90255005601563    0.41614032651535
H         4.91528148819068   -2.54413883904218    0.79786190383379
H         4.30091779434317   -2.01124933002029    2.88497272056225
H         6.19603998700398   -0.15088529947353    2.54546705864644
H         5.00879472481366    0.52798686013658    3.62421294418384
H         5.09559772249632    0.93567401798162    0.62009213484081
H         3.45911498587484    2.58538152343943    1.01635733838774
H         3.30127068088830    2.28704667926892    2.72343015038664
H         1.54754113311884    0.96855816591552    1.45904194520263
H         2.70978348958744   -0.12845681754001    3.40686211320199
H         0.83210663505802   -1.31697925476065    2.49951394299790
H         1.99208655318345   -2.34581352753262    2.78806142759875
H         5.94745488986005    3.07743333698022    2.55251790327754
