36
 energy: -51.087564161843 gnorm: 0.124329555893 xtb: 6.4.1 (79825abcba525fcdf90b791dcacef51065a7a4e7)
C         0.93511725086768   -0.84802832800143    0.00863560376674
C         2.44244654967251   -0.60552707641878   -0.20115149521476
C         3.19659588051714   -1.93614388970147   -0.02692579033368
C         3.36259549551340   -2.20143444051187    1.46715096410043
C         4.11580512775294   -1.03137421661608    2.10425312383207
C         5.47677678561072   -0.73045218696166    1.45514206597370
C         5.56503038312664    0.70194124634732    0.89142906986439
C         4.28286831956956    1.15489750758677    0.16348302919738
C         2.93888342320169    0.58559550435448    0.65509005617247
C         3.20109289739065    0.19220810330231    2.11159102838955
N         1.98643439678059    0.11526847613341    2.91718219419224
N         6.11444592099446    1.58372042205485    1.92200569987232
C         7.32345526476699    2.16319937410326    1.72095554353790
N         8.10202897718173    2.06567851461383    0.63612370832622
S         9.51559926248491    2.85698716050358    1.04245035853642
N         9.06333617371893    3.21701100151704    2.60897874503946
N         7.82544722061875    2.82209186392947    2.84501090105505
H         0.44847622192714    0.10943499074547   -0.20766818534460
H         0.73500721070333   -1.22450934998232    1.01828848505602
H         0.52662967503190   -1.53604328423937   -0.73640317173877
H         2.62702950645684   -0.30296238891319   -1.24144951140079
H         4.12818754619688   -1.89040377360039   -0.60693105767274
H         2.63391702263605   -2.77197206413306   -0.46667654958533
H         3.85134622487948   -3.16112478940062    1.68264983022660
H         2.36780842239791   -2.34149532582730    1.91395541807089
H         4.31316604177706   -1.38802717897179    3.12821802418675
H         5.70328299479348   -1.41696997091220    0.62875592258894
H         6.32668774760684   -0.75876339960815    2.15354216930246
H         6.36477531522950    0.76568434980172    0.14367739238205
H         4.39611627401969    0.85197279709358   -0.88693210638627
H         4.19701686159483    2.25169103122078    0.10501071860133
H         2.10859915134396    1.30591190164991    0.68822898831341
H         3.78772512974978    1.05497372543748    2.45267121293643
H         1.15861087767802   -0.07624378465370    2.35088053357197
H         1.72155673253338    0.98801876459670    3.37493897207749
H         5.64576927881119    1.62742689437311    2.82492066177170
