36
 energy: -51.088705439218 gnorm: 0.131326697955 xtb: 6.4.1 (79825abcba525fcdf90b791dcacef51065a7a4e7)
C         2.13333848407897    0.40304218491101   -1.24085253941042
C         3.07279519183865   -0.15416057745284   -0.15374387359900
C         3.01606339877227   -1.67576540451125    0.07239135041309
C         3.95706502959816   -2.10709698390947    1.19429565653675
C         3.86418104059436   -1.24896727328210    2.45811953107051
C         5.16641861590294   -0.45748306199074    2.66274878364435
C         5.33553635560097    0.74824553653828    1.71674151908656
C         4.05825365007304    1.58343435031250    1.49308343523149
C         2.89158184073025    0.63189079954351    1.16824595078724
C         2.67714399394790   -0.29122473622036    2.37106623534738
N         1.42907580427762   -1.04004585986382    2.26204871604200
N         6.31164486268021    1.53939084378650    2.46692913484516
C         7.36007429013537    2.02497543768859    1.75775781576746
N         7.56494597666622    1.69522040131863    0.47641607132365
S         9.00792890522131    2.41812501877072    0.04669423862987
N         9.37018912079152    3.06258065812195    1.54389653495185
N         8.37162353996087    2.77630597111174    2.35934422821583
H         1.10123774254359    0.40152756391381   -0.87328134254645
H         2.15262519732363   -0.27558079150440   -2.10124768258265
H         2.53562397172093    1.37130378464768   -1.55060294685333
H         4.08037158975722    0.13362129756045   -0.48511617820125
H         3.12451120286402   -2.24972234460788   -0.85775583758078
H         1.98389981411178   -1.83747053334155    0.41457075929238
H         4.97815739092436   -2.16916694089353    0.79449532880159
H         3.70029368624774   -3.14437171979896    1.45310482121293
H         3.79096819998713   -1.88987618651257    3.35172594583120
H         6.00189617441713   -1.16585154725273    2.58713706337200
H         5.13122720555478   -0.13178588591790    3.71327045729790
H         5.79065971453048    0.54217505646748    0.74042938410220
H         4.43944874438011    2.39604330674492    0.85879847358403
H         3.87991530922668    2.13242893203698    2.43145751370964
H         1.90601682387512    1.11942736346023    1.15105395105385
H         2.69462586069528    0.35059236701193    3.26134864186464
H         0.66692956415186   -0.56421542048167    1.77688400814435
H         1.11002014313715   -1.26938801367711    3.20385558238643
H         6.12047608784516    2.01256859962631    3.34805387017402
