36
 energy: -51.087970491634 gnorm: 0.132184813910 xtb: 6.4.1 (79825abcba525fcdf90b791dcacef51065a7a4e7)
C         2.13012675072621    0.40384794112875   -1.15228141732727
C         3.26694877802010    0.03948266864574   -0.17773909347499
C         3.37296966512544   -1.49366936319751   -0.08918770751700
C         4.19134564257098   -1.97285859373251    1.10698901333955
C         3.80879837553681   -1.29756364517072    2.42604139344979
C         4.88085054811854   -0.46760492805996    3.15131086295003
C         5.42377265759922    0.54825110411518    2.12633079084542
C         4.27298177671167    1.49518749316218    1.72883079046340
C         3.05231422192187    0.72194575627994    1.19577768331324
C         2.67088779657656   -0.28854936932183    2.28128035883326
N         1.35367402545101   -0.84180371706822    1.98270097997414
N         6.56079590336614    1.27318496345652    2.69477534940895
C         7.31717589889713    1.91422734646924    1.77018106823181
N         7.33542220593020    1.61755807652775    0.46473023966581
S         8.63457448391796    2.43487103848633   -0.19379428251459
N         9.22210182733331    3.00084048491983    1.26314101349664
N         8.33823692699899    2.75709768086242    2.21362175429634
H         1.20368259964897    0.17967899598976   -0.61210334591195
H         2.33303911966940   -0.14288216194842   -2.08023276211243
H         2.12204213710539    1.48505310835434   -1.31426748724845
H         4.18732750424753    0.41665025396603   -0.64516164105056
H         3.68337641378769   -1.93883415043189   -1.04408941281601
H         2.36696900413280   -1.92659717501031    0.00637982360927
H         5.26024867502112   -1.86554413592407    0.87840090339449
H         4.05448453812001   -3.06169805335775    1.17444467897217
H         3.46117633752751   -2.09404939711793    3.10385122611213
H         5.67910787464169   -1.11548851812586    3.53674295888093
H         4.50704458901902    0.17399117151291    3.96342934957146
H         5.77844439717929   -0.08617950583942    1.30505527747721
H         4.80153997977479    2.13318969739076    1.00665361962685
H         4.03004913811875    2.22652303999425    2.51615383737135
H         2.16708776003887    1.36742106427383    1.10058508572495
H         2.61717533793970    0.10157997470900    3.30585425278921
H         0.65457030178622   -0.10175255170659    1.90367846792269
H         1.13410899276492   -1.60549130738120    2.62298761796083
H         6.40162190144120    1.83802992586833    3.52690352554590
