36
 energy: -51.077581675470 gnorm: 0.131341498838 xtb: 6.4.1 (79825abcba525fcdf90b791dcacef51065a7a4e7)
C         1.21928158748014   -0.15409171005472   -0.31185112849080
C         2.74641143813981   -0.35533278490009   -0.26456998468556
C         3.11129849721524   -1.83324746081509   -0.03596002334003
C         2.95435121617709   -2.19102318545074    1.43969723532103
C         3.85263391950437   -1.23524775258000    2.22826954195662
C         5.35892119708934   -1.19293144311199    1.92257199104845
C         5.95620479872297    0.04999807999144    1.23286882346215
C         4.93340780109990    0.69293749544697    0.27394777235456
C         3.45790603101066    0.61657246872709    0.70885064577958
C         3.31806604210355    0.19486739478915    2.17428984870546
N         2.05443175480945    0.23637103909669    2.90353458284896
N         6.31122166704627    1.07054392504655    2.21974741630646
C         7.16195670812794    2.05222382358891    1.83183621016188
N         7.79287452912114    1.97300172948353    0.65361125550756
S         8.99828095746680    3.12844740965412    0.69092477823725
N         8.62257944711073    3.78179011262951    2.18094556371007
N         7.59154277869986    3.10102310019289    2.64737993640920
H         1.05311076893779    0.89445076981902   -0.58257007150570
H         0.65971113803360   -0.21091578797941    0.62880441462537
H         0.89873196195081   -0.84375504430626   -1.09729487223375
H         3.12548680317403   -0.05169962351533   -1.25044268027172
H         4.16223883922902   -1.90533106091976   -0.34690959981079
H         2.48552399415679   -2.50706121250770   -0.63843678385176
H         3.15918582586062   -3.26291882987706    1.56381448100605
H         1.89798450194975   -2.07130076678326    1.72006927108928
H         3.65930267279984   -1.47596224652312    3.28625646385133
H         5.60047206562267   -1.95742709585758    1.17242176445325
H         5.91176929203652   -1.38844292222579    2.85372562805009
H         6.92030954363201   -0.21182377983640    0.78038783911340
H         5.12053670339177    0.21980568672415   -0.70026446963943
H         5.25329651543028    1.74259262483827    0.17576001856698
H         3.09350874186421    1.64603382186451    0.57942968469464
H         4.04981742711195    0.87683250828898    2.62628658462485
H         1.55133073566752   -0.64725379216192    2.99714440841253
H         1.47405177644583    1.06760162037075    2.78687570083702
H         5.93750181054408    1.14275285236003    3.16417466470746
