36
 energy: -51.087616209256 gnorm: 0.125440028076 xtb: 6.4.1 (79825abcba525fcdf90b791dcacef51065a7a4e7)
C         2.09116228112044    0.27457555184557   -1.07200224698275
C         3.29153795476382   -0.00578515425987   -0.14714807994217
C         3.29008529553267   -1.54280233904001   -0.06221876269338
C         4.08301670243637   -1.97961084766521    1.16686968276075
C         3.67790815077409   -1.20231810409936    2.42144845637764
C         4.88938610649756   -0.43674991616402    2.97855673572707
C         5.33770156284432    0.65324686071564    1.98445799354887
C         4.16308437562692    1.60830074887909    1.68922764106422
C         2.98984227391683    0.75923631516137    1.16513773195976
C         2.53478798975521   -0.20046772797185    2.26822263532337
N         1.29962376606351   -0.92452644617909    1.98467292758859
N         6.51098500346373    1.32222125706150    2.54780460249413
C         7.48899719682559    1.80098522679895    1.74021693254477
N         7.52351639252646    1.60872298393325    0.41568262873804
S         8.82850624145618    2.48647326663453   -0.14646291243878
N         9.31754715481336    3.01501798741010    1.36007275475752
N         8.48497963590791    2.60417829848501    2.29926572841580
H         1.19505902680152   -0.09460685638880   -0.56107550535855
H         2.25314941481837   -0.12006622521367   -2.08155609282552
H         1.96977776348447    1.35400472681835   -1.19613087163603
H         4.32078100135785    0.23590546018517   -0.44728241042534
H         3.69497085695389   -1.70812998168152   -1.06973836908378
H         2.25879198525341   -1.90741351265841    0.04773471939852
H         5.15325771251279   -1.83340119093257    0.96804935821238
H         4.07889743015480   -3.06498968786666    1.34233590616993
H         3.31296333327300   -1.91085347105728    3.18266439554928
H         5.68210085993310   -1.19228963016626    3.05785912777500
H         4.70221233982470   -0.04550817140919    3.98989681471489
H         5.68783506131824    0.10548686050082    1.10119516176241
H         4.44372728259816    2.55046942927651    1.19778265590880
H         3.91799181648560    1.97534709856888    2.69865924253415
H         2.18272906966453    1.48971020063216    1.00924653341074
H         2.48382543786897    0.37081860618447    3.20410314584580
H         0.45909030093661   -0.35403222150454    2.08814336148776
H         1.25012002647565   -1.72858149222985    2.61112274986543
H         6.35166462647227    1.70472184270216    3.47793030098585
