36
 energy: -51.088419002170 gnorm: 0.133886547100 xtb: 6.4.1 (79825abcba525fcdf90b791dcacef51065a7a4e7)
C         1.75616572216939   -0.23246160723980   -0.95292176971970
C         2.99203321421110    0.08464193769463   -0.08866721760449
C         4.00242043108800   -1.07659089444233   -0.07155526444149
C         4.28555996766007   -1.71234515092813    1.28706490078672
C         4.03639746392032   -0.95294677848961    2.59224571084147
C         5.12924370885751    0.09733791065153    2.85057151365976
C         5.00115966891648    1.18371117984245    1.76397150166890
C         3.59018637726176    1.80086231156754    1.67857101166335
C         2.58725169434725    0.70529322413855    1.27122836733186
C         2.68037535530536   -0.26305609036349    2.45382300581791
N         1.65876729727167   -1.30269500867215    2.37792840349142
N         5.97387589591689    2.27176612655482    1.87092819067587
C         7.25865924123210    2.09207219678054    1.47727544554276
N         7.56340649512042    1.15541768980550    0.57043757771726
S         9.20378405850786    1.32985479576579    0.30931534210826
N         9.34254243387248    2.70745174104339    1.24266577114804
N         8.22359586245695    3.02189135742508    1.86966470695670
H         1.00843506258319    0.56465811277308   -1.02935357296475
H         1.27533658243768   -1.14206754306948   -0.57529589993620
H         2.14454023090240   -0.48656307749154   -1.94282435708419
H         3.48200033872238    0.95383063787592   -0.54940512666499
H         4.93041865774389   -0.67998843864857   -0.50501467506149
H         3.63431763350900   -1.84084940761666   -0.77084504371334
H         5.32635453745622   -2.06139764564838    1.32215908562957
H         3.57714178910236   -2.55139473621352    1.34176462627244
H         3.97228665656862   -1.71691630583490    3.38401406537969
H         6.09887354038899   -0.41049444019011    2.76425768503274
H         5.10798347156368    0.61146467012773    3.82326598496615
H         5.39097196023566    0.67226286137959    0.87557142182487
H         3.50382744183528    2.68995490853541    1.03824538230707
H         3.48689743133264    1.99698258671900    2.75774373455463
H         1.55300069212327    1.06553372966292    1.17184278146304
H         2.38272766883515    0.28104882964412    3.35946821778047
H         1.74315387710022   -1.71604069816389    1.44804102243018
H         0.72085398583643   -0.90355648958096    2.42693426058004
H         5.91833593571422    2.97357552900697    2.60659276844701
