36
 energy: -51.081423589867 gnorm: 0.129607607647 xtb: 6.4.1 (79825abcba525fcdf90b791dcacef51065a7a4e7)
C         0.99529231785840   -0.72539595407011   -0.33219941614964
C         2.34100198508704    0.01431769811614   -0.20278435035369
C         3.46339791115808   -1.00524806625321   -0.46801992813502
C         3.68988590807198   -1.89124851058839    0.75423481646769
C         4.15562920156723   -1.11019808846145    1.98521337547767
C         5.39653695591723   -0.20412313132015    1.92760114592095
C         5.20647661145410    1.14864858869452    1.21262024407896
C         3.78077238050539    1.72497557687524    1.09333488218595
C         2.62217009975177    0.71186522329841    1.15100442155004
C         3.02622606128882   -0.14880337749208    2.35137553800206
N         1.97649417146847   -0.93243813008086    2.99501489226870
N         6.07644775526809    2.10745846136960    1.89475949766376
C         7.39712903522940    2.22023168971295    1.61014790726528
N         8.06872223049878    1.18955238282400    1.08174446002015
S         9.70236407067345    1.53343228441105    1.13086287217204
N         9.45091060320255    3.03916620841964    1.80740315579023
N         8.17735590253609    3.29196412662019    2.04863540282741
H         0.11280367317049   -0.13400996927673   -0.06420833196560
H         0.89817068366867   -1.64486221897906    0.25629874900469
H         0.86535064601936   -0.86118749937414   -1.40922553952498
H         2.26119512664438    0.86715457671220   -0.89135992245223
H         4.38258768661492   -0.47104208347193   -0.74383764684912
H         3.22704927193117   -1.56414538178059   -1.38473692861198
H         4.51952965672623   -2.54641267930377    0.45628556881483
H         2.73948036251477   -2.41570671579461    0.92895020483820
H         4.42645285017642   -1.84906063009011    2.75683080640134
H         6.18315221850162   -0.83116741163743    1.48762651339524
H         5.65174004150878   -0.06718283673010    2.98921858918878
H         5.41641880996930    0.89264196616361    0.16707131474552
H         3.76189749655761    2.29356536301541    0.15295739533783
H         3.50442490487202    2.32624630537940    1.97415898563605
H         1.73753470559115    1.28680198675587    1.46115566270222
H         3.38981914389605    0.51925733874050    3.14278726177841
H         1.60625666194338   -1.64762825659733    2.36724617550337
H         1.18300438788633   -0.31515941639419    3.17033021567241
H         5.67326350971714    2.85921453612190    2.45075297417478
