36
 energy: -51.082417774503 gnorm: 0.136064824009 xtb: 6.4.1 (79825abcba525fcdf90b791dcacef51065a7a4e7)
C         0.81465461787178   -0.80452824488850    0.48307072286431
C         2.20712686170605   -0.50492822080514   -0.10524886422120
C         3.04441158759181   -1.79291649797469   -0.00687527810593
C         3.62564938127533   -2.12400950796635    1.36525456453524
C         4.36463554468581   -0.91164579534165    1.93651498921757
C         5.63972356203570   -0.54717473559183    1.15840546030075
C         5.55876102282407    0.80283135121195    0.41797274295847
C         4.22372763601107    1.10652563125736   -0.29228778680318
C         3.00949077547977    0.65232724215157    0.53922305087631
C         3.44417869007598    0.30727621872928    1.96641913627630
N         2.50666962346371    0.05599845877081    3.05647798777474
N         5.86522740596384    1.93003089228426    1.29943727197709
C         7.13708629662389    2.09554113364120    1.73864333966866
N         8.18158066496219    1.38074133670510    1.30201964761282
S         9.51356244612308    2.25764197396553    1.79832750214276
N         8.66751239010553    3.47261549551147    2.57047314866287
N         7.36750533052490    3.28325484642638    2.43569348588666
H         0.19892537377832    0.09521879439294    0.37501712381597
H         0.90393644818372   -1.11977400876217    1.52893389993949
H         0.47978095269333   -1.60509473205923   -0.18195738354816
H         2.10011901845091   -0.19526324095564   -1.15429277267165
H         3.83604524850653   -1.74539004234671   -0.76675597258313
H         2.46455695490778   -2.63791982284130   -0.40478850510902
H         4.23948358453830   -3.03451442721550    1.34265039379601
H         2.78650980101779   -2.31838098171183    2.04856787118660
H         4.58941333191011   -1.24840571635608    2.96156350696832
H         5.74180199944693   -1.23581204817583    0.30935632320659
H         6.62494184455562   -0.49032235662472    1.64525820221217
H         6.41269460548780    0.78531915260178   -0.26997962674856
H         4.28648266710330    0.65187298466061   -1.29094348286352
H         4.11069053941117    2.19384155363230   -0.42908038595913
H         2.31219142211847    1.50242190456055    0.56016417283950
H         3.89942493604341    1.23596834025861    2.33400498320490
H         2.23604863520033   -0.90514482795228    3.27009947847748
H         1.79493627027579    0.77325123477234    3.19923157786148
H         5.11513601124342    2.56712390308411    1.56077783330177
