36
 energy: -51.084346933828 gnorm: 0.125910919720 xtb: 6.4.1 (79825abcba525fcdf90b791dcacef51065a7a4e7)
C         1.57451573258445    0.20568960960285   -0.72020295051618
C         2.92952903033119    0.34358209092590    0.00075728107456
C         3.87284525597373   -0.84201610324568   -0.27154444736097
C         4.44654533046584   -1.70962052583643    0.84574289160947
C         4.17197059244229   -1.25491825303881    2.28105446886335
C         5.25563214776073   -0.30706723945201    2.82086844775402
C         5.16804222304997    1.01334171958854    2.02956562391273
C         3.78325942513000    1.69251086985515    2.04053109504858
C         2.74470620015243    0.69284999270406    1.49816321365775
C         2.80179205222190   -0.58221883887313    2.34423834794463
N         1.73253949049076   -1.51838483441614    2.01169623632673
N         6.15622635012799    1.95432449927656    2.55826562756887
C         7.30069082588984    1.93082893233977    1.83192573505684
N         7.30316342765251    1.42964491429799    0.59041217365131
S         8.74661622474555    1.89709204649696   -0.10772024178496
N         9.35165113999559    2.70209004256973    1.22422616373256
N         8.46782497673742    2.60284953990423    2.20046588268103
H         1.60831924322797   -0.49614872284405   -1.56081170846763
H         1.22762620616095    1.12197189519512   -1.21140081411933
H         0.76290605994802   -0.03631797838623   -0.02880472422089
H         3.32053303886975    1.28843296005744   -0.40199436140363
H         4.66342968547464   -0.54940124113401   -0.97561409336112
H         3.26925040250384   -1.58232145547519   -0.81580374541398
H         5.53564621607770   -1.71303703596498    0.70372117166174
H         4.11348179068159   -2.75171922800412    0.73641981040043
H         4.11520597989995   -2.21576860121023    2.81789815449350
H         6.14740852021967   -0.92952877551744    2.66986409238818
H         5.10886035207270   -0.02362609357972    3.87397433423271
H         5.47481741625355    0.84296165175325    0.99050484303315
H         3.83759056373101    2.54833514202770    1.35309137566802
H         3.49380254951141    2.11817188786537    3.01458084355148
H         1.72951634597583    1.10841671897841    1.57574994420440
H         2.57075239086644   -0.35069815023103    3.39202477477934
H         1.78637300015850   -1.79310368782654    1.02970957945331
H         0.85051730692209   -1.00637684399790    1.97593041985877
H         6.24130181632902    2.19756421688916    3.54336465042306
