36
 energy: -51.089524278660 gnorm: 0.144145443497 xtb: 6.4.1 (79825abcba525fcdf90b791dcacef51065a7a4e7)
C         1.95796958050982    0.11185993060528   -1.13084079284002
C         3.11121857795077    0.13636221116010   -0.10894280974225
C         3.60060195101006   -1.32112487128617   -0.03231231954367
C         4.40238961810233   -1.63180178900068    1.22896349447689
C         3.89682177862127   -0.98521663364717    2.52070404113866
C         4.91261655534790   -0.03153863550703    3.17093658742496
C         5.13596708180795    1.04065118901766    2.08565527138098
C         3.79211712785364    1.72007664912896    1.75179487347582
C         2.71655802999936    0.73069859851456    1.26560420135362
C         2.51954298749760   -0.35218066858196    2.33024504218257
N         1.57431847388918   -1.38511829089273    1.91807685550020
N         6.20117026061128    2.02664934814737    2.27174655770257
C         7.37868144026157    1.98708192235010    1.60105850429352
N         7.56634700983869    1.19475570325741    0.53825642428638
S         9.07916395120396    1.64950430826014   -0.00399838987119
N         9.29192390168223    2.87205260990707    1.11326572733214
N         8.34432476726232    2.89858527568237    2.03271842605789
H         1.55864480478870    1.12433861555496   -1.25641730770032
H         1.07609435169138   -0.42578399601371   -0.76421289427431
H         2.27679180463669   -0.21177343696491   -2.12528701545927
H         3.91994172689281    0.70359195449560   -0.59066212786238
H         4.26802429499291   -1.54197230857066   -0.87619330922207
H         2.75266299480326   -2.01978257387501   -0.07070380020713
H         5.47843367464063   -1.45882156680451    1.09283990212605
H         4.25807107075262   -2.72082925251091    1.27417341389166
H         3.78048910874621   -1.79809379452273    3.25579194523758
H         5.88851200652388   -0.44102022183551    3.46330398473906
H         4.38466019489076    0.52237116678790    3.96173295457646
H         5.42711943467170    0.47856689778491    1.19006648624371
H         3.95037664942206    2.47590734129928    0.96972432996568
H         3.52837007125647    2.13630721453327    2.73715528740135
H         1.76032089162433    1.26884963627720    1.19259816928356
H         2.25257365336386    0.15193244798478    3.26802696105624
H         0.66697102343544   -1.11532665027900    2.30095983454161
H         1.79077192683032   -2.28091738610347    2.35635348080717
H         6.16623026699028    2.72052906890135    3.01614807293330
