36
 energy: -51.086752279890 gnorm: 0.130984900339 xtb: 6.4.1 (79825abcba525fcdf90b791dcacef51065a7a4e7)
C         2.40539198509658    0.21869555397598   -1.29353106971098
C         3.40381863222052   -0.15798577305362   -0.18172421439791
C         3.13717527947719   -1.63722088013692    0.15054332463876
C         3.90180710724348   -2.11166115338420    1.38360653155189
C         3.64526796096722   -1.23252712590422    2.60981036937325
C         4.97454341193395   -0.62468367926736    3.08698561754002
C         5.45610604582107    0.30902163930738    1.95844504506491
C         4.45022025838411    1.40967122241467    1.56375694831517
C         3.17716092838991    0.67466153746169    1.10423724629784
C         2.63936829644296   -0.12729362564680    2.29274450546768
N         1.27351898848733   -0.62289692880377    2.15445089295786
N         6.65111696122193    0.99594502828134    2.44993802066260
C         7.42227610227120    1.72461518143127    1.60597473942950
N         7.08000392679862    2.31128990503290    0.45219400281373
S         8.40358314558335    3.19321717127976   -0.05750592663543
N         9.32146912135056    2.91106526009060    1.30852697481308
N         8.67068469680956    2.09058762808685    2.11309981283850
H         1.70373757587551   -0.60058778198289   -1.48536100270574
H         2.88619253269428    0.36735884467821   -2.26713827027949
H         1.82389926929471    1.10586286510108   -1.02874845376848
H         4.47378934653419   -0.01218696625072   -0.38603178051846
H         3.34084252391240   -2.09330973758019   -0.82765087928833
H         2.08797880309443   -1.79540362204306    0.43822706855705
H         4.96192895570211   -2.16031906467520    1.10059298211482
H         3.45276588295811   -3.09133188567432    1.60145928658219
H         3.19404854973330   -1.90050323118654    3.36138587488787
H         5.63940939422471   -1.49813689611083    3.06335284153155
H         4.87026468350654   -0.16049342104048    4.07923871817840
H         5.62459932976962   -0.31220515887949    1.07048390719507
H         4.84060116010388    2.00949462738790    0.72962561921835
H         4.19520821475638    2.10934636200450    2.37564922976729
H         2.49450391710499    1.51101874346385    0.89492432479023
H         2.64101360729261    0.54814079702004    3.15797465058098
H         0.70816846357831    0.15533880581070    1.81182249405832
H         0.84467795020222   -0.93869244357557    3.02494676496033
H         7.18236053215815    0.55978020549687    3.20117966869567
