36
 energy: -51.093366427238 gnorm: 0.119103581069 xtb: 6.4.1 (79825abcba525fcdf90b791dcacef51065a7a4e7)
C         2.07710889157520    0.47353162057728   -1.23919268746262
C         2.98441552708718   -0.12930322537432   -0.14912661327502
C         3.06684489584027   -1.66280948420906   -0.04329172586528
C         4.02740221740634   -1.99562493995056    1.09546369856452
C         3.85439807663005   -1.22053589623092    2.40373412974929
C         5.06454907625053   -0.33587352437222    2.74586022581635
C         5.20186492348453    0.90746015618029    1.84442926024494
C         3.83541818272691    1.58164033162877    1.60501566937864
C         2.76356407613619    0.54148105402048    1.22914965270501
C         2.57458263442217   -0.38677128541135    2.43228570014454
N         1.36995401618549   -1.20449140261238    2.32983601790504
N         6.30015568749574    1.75332024377958    2.31321307964181
C         7.40971822046012    2.13470825630632    1.63399679957927
N         7.72027048707909    1.67424657229918    0.41576867744368
S         9.27474826744523    2.19194260430379    0.09166790466427
N         9.46724508435210    2.98586793347467    1.54796382101711
N         8.40907252784682    2.82601771805342    2.32175972652600
H         1.02849250904544    0.17956545537515   -1.11948289873273
H         2.47781956411093    0.23805041164389   -2.23174521315382
H         2.15531172791460    1.55944805770556   -1.13929627320051
H         3.98000900407193    0.15607731334036   -0.51680563799083
H         3.33550326344857   -2.08534444935019   -1.02086435301487
H         2.07814005649762   -2.07624363543116    0.20192646993730
H         5.06132959882503   -1.83527932408569    0.76138869987921
H         3.94121018921744   -3.02315815427355    1.47703815732697
H         3.94427562798548   -1.98906874609957    3.18855012305384
H         5.99744117082234   -0.90918112703098    2.66488760737996
H         5.00002816189641   -0.05257744437046    3.80722410703219
H         5.54563201893324    0.57536244342297    0.85735123699854
H         3.98615934770467    2.21912120877524    0.72248764358260
H         3.48110714439372    2.17108684227571    2.46569102476335
H         1.86195843154923    1.16378017756832    1.13335284195077
H         2.53868491970446    0.16503096275010    3.38047518609948
H         0.44707823103023   -0.77059193228594    2.38177693410307
H         1.34921208639816   -1.79008064092246    3.16532961484380
H         6.09256343569110    2.31985114005609    3.13343968617127
