36
 energy: -51.094642139915 gnorm: 0.126963218246 xtb: 6.4.1 (79825abcba525fcdf90b791dcacef51065a7a4e7)
C         1.99957743561562    0.66650663809115   -1.14639826279498
C         2.92206479427683   -0.02094259408851   -0.12107405675957
C         2.96705584507304   -1.55959344268796   -0.10817872606962
C         4.03476996337634   -2.03716508575738    0.87269444745893
C         3.95408782911104   -1.37535835603485    2.25028912280456
C         5.16060220920700   -0.47968112588420    2.57621620054972
C         5.27585151901940    0.77606707680701    1.68901495493430
C         3.94557598723357    1.54359762183346    1.54661307654072
C         2.76765947235009    0.58339038987548    1.29642826546699
C         2.78898727557045   -0.41005323091079    2.46155377790696
N         1.54950742249730   -1.17844585297370    2.52117428608581
N         6.17857686583958    1.74613440308649    2.30993080803581
C         7.40566243495375    1.97200126982187    1.77968013058805
N         7.96390482740279    1.20596228110084    0.83411302445169
S         9.24295670598110    2.09636068115895    0.23355607442360
N         9.11429725282700    3.34280613872842    1.33718224202291
N         8.07992012056269    3.14242787369832    2.13339443594570
H         0.97024758148746    0.30301752721682   -1.05313228764096
H         2.38642388913639    0.52628909234263   -2.16220818157443
H         2.02116307229066    1.75279749554352   -1.02467853685933
H         3.93487491874624    0.32161463891392   -0.37544862509902
H         3.06129098307620   -2.12268314371938   -1.04648092960760
H         1.98412589416549   -1.80441336469049    0.31903186318158
H         5.02306122399232   -1.85872575736369    0.42798960811971
H         4.00371477524314   -3.12106527359039    1.05448705460216
H         3.94774687093172   -2.09893622341716    3.08158428894965
H         6.07722305401474   -1.08372532387135    2.59772496338268
H         5.07935037717488   -0.13899675264093    3.61940610410123
H         5.68804511983720    0.57794507712739    0.69220413400483
H         3.99749234628673    2.29174964812582    0.74316196857375
H         3.69910046312339    2.12005602046922    2.45253308759301
H         1.79680892411336    1.09890472340752    1.26448965706714
H         2.94465399886401    0.14724015545591    3.39430752085010
H         0.75312904124749   -0.53934682782745    2.52071523348417
H         1.51087387978239   -1.84117907781887    3.29621405147411
H         5.92277891184750    2.41547133504503    3.03338015922003
