36
 energy: -51.084414342467 gnorm: 0.126461000046 xtb: 6.4.1 (79825abcba525fcdf90b791dcacef51065a7a4e7)
C         0.85543768780931   -0.66546226225715    0.05730349001458
C         2.33245547497176   -0.50065995698944   -0.35027198307291
C         3.04666737785598   -1.84540763683753   -0.12401557307203
C         3.42001853564098   -2.19167412391374    1.31504965555772
C         4.07259743336403   -1.05945717489174    2.11159871886957
C         5.54174042057589   -0.79898632200071    1.74022704811883
C         5.66051833720827    0.54328980127001    0.99089494382942
C         4.41575224306050    0.91512013527239    0.15944202491212
C         2.98246633784407    0.54726740408087    0.58658782623807
C         3.16258031593966    0.16650768888614    2.05882542310790
N         1.96227021575696   -0.02681860962550    2.86639753921513
N         6.07816977228592    1.65189713517974    1.84998585703737
C         7.26066402514048    2.30522905055065    1.73691347266680
N         8.18865424346626    1.82053691658321    0.90237458440781
S         9.60670102028931    2.65821693580016    1.17965998988877
N         8.89481748255554    3.72603127043261    2.24791306280041
N         7.64870597281647    3.38922577324130    2.52685664856863
H         0.45669250049698    0.35159653956564   -0.02598215471450
H         0.72728870009936   -1.06031634975627    1.07162543955078
H         0.32796657525777   -1.33745220432355   -0.62498178963550
H         2.41567574933614   -0.12166745253024   -1.37851090784298
H         3.96363752582413   -1.75808191468953   -0.72226407738326
H         2.42263287694119   -2.63654937230578   -0.56364344565814
H         4.13143697092904   -3.02238154519994    1.21439381249892
H         2.45818234618559   -2.45543039978205    1.77781997447936
H         4.10928831881979   -1.40230478003425    3.15838718471147
H         5.75516219939703   -1.58158401336839    1.00028259008178
H         6.23392449964561   -0.90272851598585    2.58936285494003
H         6.47035957569133    0.39256129178675    0.26686055866596
H         4.54387043059343    0.54006491373377   -0.86568223605115
H         4.45787088998610    2.01468744545177    0.10537462150808
H         2.44265894226019    1.50531462983759    0.57767854249252
H         3.59106521767070    1.04104739043374    2.56520333336917
H         2.02548722719090    0.37586944268868    3.80261986274095
H         1.79721372645603   -1.02305654173008    3.01357380339041
H         5.36785005754502    2.19668847713743    2.33524020920640
