36
 energy: -51.092203945901 gnorm: 0.126117972376 xtb: 6.4.1 (79825abcba525fcdf90b791dcacef51065a7a4e7)
C         1.61704185757755    0.31355098562791   -0.99556374771679
C         2.86866490867175    0.00089930844446   -0.15262381043602
C         3.09238269527136   -1.51954708118269   -0.06413642275160
C         4.22649585662760   -1.77327198622095    0.92561671774877
C         4.01154528372931   -1.23252903805864    2.34112302928248
C         5.09721063513783   -0.25619732456611    2.82304646831376
C         5.23690309482611    0.88055179432785    1.79076771526755
C         3.92914034311689    1.64534912637195    1.50118866621235
C         2.82285506219378    0.59780715638330    1.27565299041566
C         2.70878977075277   -0.43666944475829    2.39892935240883
N         1.51115063106204   -1.19160902569389    2.04393804555596
N         6.15280729174648    1.93150486569274    2.23584891734810
C         7.40005832147881    2.10536440616367    1.73379482054355
N         7.75378275399134    1.42663036354938    0.63527464780325
S         9.27575200163118    1.96678066649540    0.20948253066760
N         9.46689192796192    2.96120414762886    1.53717139397776
N         8.37918520398095    2.93387240573595    2.28562874728041
H         0.69702184905220   -0.11081577224726   -0.57864786246812
H         1.75368249330439   -0.27269709050542   -1.91143680406837
H         1.39039142675944    1.37743999603443   -1.10546917460301
H         3.78511639860450    0.39195797052755   -0.61633276183472
H         3.47772915752300   -1.89481099420446   -1.02176181544043
H         2.23284734814751   -2.12111016848683    0.26437201091090
H         5.13109984613871   -1.37194297376098    0.44922482363122
H         4.43888931873688   -2.84870216068415    1.01041964375784
H         3.99416260673217   -2.06682436336209    3.06105769309438
H         6.07753156537589   -0.70461607498717    3.03141459071606
H         4.81064096935800    0.16175653302047    3.79982958517205
H         5.71792005796037    0.46757005892866    0.89586187746196
H         3.92631960458767    2.20933046683903    0.55785546617472
H         3.76066524178582    2.31857094535038    2.35683698360084
H         1.89601093743998    1.18858586994566    1.31123891896965
H         2.62182046900649    0.03139916875948    3.38796204949773
H         0.81632842343066   -0.44468558086370    2.08858969057026
H         1.25106740537286   -1.84420755428377    2.78411801630021
H         6.07068084939684    2.20796731002017    3.21239755912837
