36
 energy: -51.093234885230 gnorm: 0.120259882275 xtb: 6.4.1 (79825abcba525fcdf90b791dcacef51065a7a4e7)
C         2.45392029764887    0.59500541754399   -1.26394989107465
C         3.39635549304032    0.05483997034435   -0.17083677329697
C         3.31206598690750   -1.46782528915235    0.03897909522559
C         4.12258805102687   -1.99172280779502    1.22168178885968
C         3.79204670486250   -1.25026212455359    2.51908046060393
C         4.93533024478521   -0.47230948555358    3.19126760072148
C         5.25922474573740    0.60206553166884    2.13385439487024
C         4.11904328271833    1.58263100911106    1.79108336105503
C         3.00926876351586    0.70731896710472    1.17927700009572
C         2.62724402282183   -0.29252040685756    2.27439383240146
N         1.43489925915672   -1.08044111445455    1.97810503462594
N         6.46864143834642    1.28188160888501    2.59930204255193
C         7.40631314306899    1.76058616466241    1.74517423456697
N         7.32572411838595    1.59966132274411    0.41846550966264
S         8.57435819380282    2.48791150664903   -0.24589600357203
N         9.23783918935531    2.96666544680318    1.20969936703200
N         8.49015233921878    2.51436556182676    2.19986629279107
H         1.37695221700616    0.40698400285507   -1.19232224080053
H         2.64369633778741    0.26152299992400   -2.29057321901890
H         2.58469242696491    1.67871473565285   -1.32544966838342
H         4.41475429564700    0.41543468127080   -0.37250865237510
H         3.52437100486341   -2.11897606827870   -0.81967714454255
H         2.25996045564375   -1.66387784363744    0.29044343486179
H         5.19860717593121   -2.13317046819009    1.05286828486605
H         3.74193494263585   -3.02303858552045    1.24021747538022
H         3.36239838969709   -1.92704506462357    3.27540312237398
H         5.82359461783088   -1.07403465456172    3.42458930803026
H         4.64112008560914   -0.04913242958015    4.16351984815039
H         5.61777471569551    0.11064074551099    1.22131326731363
H         4.44942225083338    2.26956104077673    0.99928962936897
H         3.76229131230043    2.09618481133076    2.69813134787530
H         2.15692235290566    1.37883675701411    1.00068433326160
H         2.44197317452341    0.27869588476801    3.19321059844716
H         0.71419971940501   -0.44507609422023    1.63231642185303
H         1.10358124226797   -1.49582767796612    2.84935522358531
H         6.45691277475488    1.75357055763031    3.50162984089781
