36
 energy: -51.090546454306 gnorm: 0.125607411425 xtb: 6.4.1 (79825abcba525fcdf90b791dcacef51065a7a4e7)
C         2.01173607185600   -0.37689184354388   -0.96910894502980
C         3.31000126064026   -0.31318353159016   -0.14127571920223
C         3.73799519411280   -1.76261094201929    0.15133029836027
C         3.32052809559728   -2.14950663919117    1.56774592713113
C         3.49852717258883   -1.04806929462453    2.61532262885988
C         4.94011603302327   -0.61315476786630    2.92647213775469
C         5.53355538526210    0.37555046588363    1.90294700040355
C         4.50101095245595    1.41035177230760    1.41095850758200
C         3.18615888412231    0.71632123262149    1.00900910351421
C         2.60591773825187    0.15345330089632    2.30954839785045
N         1.19244254655007   -0.19568962588147    2.41191646002328
N         6.68668304888188    1.09839633541309    2.44078582865093
C         7.50070992396186    1.87587467423820    1.68526726843672
N         7.36619311275237    1.97367260747780    0.35677630078519
S         8.55386430064223    3.01144013909896   -0.19270287815041
N         9.33616079998852    3.10481875593980    1.27952769928728
N         8.70434872914751    2.37846597005940    2.18355562883661
H         1.78298251614306    0.54904975384045   -1.50822562298525
H         1.09688010420221   -0.77543147507634   -0.51591401283582
H         2.21488399324223   -1.05152258742618   -1.80511955554190
H         4.03618134987254    0.11476016132463   -0.84651531971208
H         4.80942481742715   -1.87893046821663   -0.06049422002476
H         3.27733388784955   -2.52309569534699   -0.49523838715684
H         3.84480351252918   -3.03521105961107    1.95113289986621
H         2.24342184136244   -2.32435216531874    1.43312142851797
H         3.13594878202322   -1.44545279019891    3.57723741941380
H         5.53043014149209   -1.53061131694344    3.05028057215744
H         4.95494386581804   -0.04095530227229    3.86630232823708
H         5.96725474830151   -0.13702437528010    1.03579095317378
H         4.99662851794734    1.90045403153478    0.56118003406233
H         4.43925041587240    2.13636042605682    2.23730141871249
H         2.53196693087206    1.56268380111971    0.75400090525739
H         2.81360393765160    0.85334329655872    3.12921785981870
H         0.89043490145337   -0.71848031317777    1.58841929622529
H         0.74474339301725    0.71972966905176    2.35744168236285
H         6.83997543064409    1.05798385446116    3.44661472291884
