36
 energy: -51.098578308364 gnorm: 0.119041328716 xtb: 6.4.1 (79825abcba525fcdf90b791dcacef51065a7a4e7)
C         2.07396035725383    0.37649736449663   -1.17080006161729
C         3.11063436665813   -0.02857223813971   -0.10492731082761
C         3.09487229204264   -1.56320495849871    0.01461718054788
C         3.95737915840940   -2.03961138892201    1.18051559377278
C         3.74420064766783   -1.23504876449311    2.46484372536039
C         4.96056261537917   -0.38627501666960    2.87004713153656
C         5.29804420496650    0.70214490878521    1.83141328874105
C         4.03420524268731    1.55878121916901    1.61255324538654
C         2.81626198978300    0.69654043106936    1.23145912290428
C         2.53142389501991   -0.31359205825806    2.34653856137193
N         1.33478363229275   -1.12915018245700    2.16430479773420
N         6.41212873927819    1.49892439503893    2.34662029681597
C         7.48342026869039    1.89654406117802    1.61713165503458
N         7.76082023889560    1.69588725645147    0.32278488566929
S         9.23267552274330    2.42630614315226    0.02348246113540
N         9.36315388970923    3.12267094218964    1.53550816046906
N         8.39121053613729    2.69206595389182    2.31905574922502
H         1.02263580523453    0.38465035715380   -0.86259065501931
H         2.27324323152014   -0.28483881403869   -2.02174173227145
H         2.21735279090534    1.39862914925062   -1.53134781550640
H         4.05462344095415    0.22408092148770   -0.60780624349975
H         3.32023902773253   -2.11354519982679   -0.90879862466021
H         2.06809195715189   -1.86711944011839    0.26352499106186
H         5.00833122282739   -1.89837522025774    0.89437802257901
H         3.76392380470149   -3.10260992218278    1.38413714538977
H         3.58184717182162   -1.99874386904320    3.24270484705762
H         5.81564126555176   -1.04140585191281    3.08257921849702
H         4.60548511017213    0.10694596723263    3.78741614471067
H         5.69771254201414    0.25152731205035    0.91489994706764
H         4.01153555498488    2.30083748013869    0.80212186062838
H         3.78080575738004    2.08156174671219    2.54862736324249
H         1.99633661681225    1.41579026620516    1.09100294582980
H         2.45048888599124    0.20672819345750    3.30963458219269
H         0.51137033289777   -0.56108845339156    2.36915281020305
H         1.37707552663280   -1.96421125857369    2.74935087201780
H         6.36263745347693    2.07131199211821    3.18730248815536
