36
 energy: -51.084712739874 gnorm: 0.126422233780 xtb: 6.4.1 (79825abcba525fcdf90b791dcacef51065a7a4e7)
C         1.17196755714570   -0.09178274915425   -0.16531497929026
C         2.70581615676797   -0.20679093860079   -0.25987087729304
C         3.03124332619748   -1.70300081191945   -0.10147191009277
C         3.01164391032250   -2.09589667760073    1.37346846977023
C         3.88362743925174   -1.22620058228954    2.28205993516007
C         5.34365885279454   -1.45802103596736    1.85931791082914
C         6.06092406045977   -0.30094289868703    1.13543054106052
C         5.07171120424358    0.44804020270467    0.21918998425718
C         3.60897393875854    0.65924822951298    0.65262820422404
C         3.53327871762425    0.25269445214365    2.12703894743001
N         2.41295165031402    0.82073012379570    2.87033903477738
N         6.71167821508200    0.57303049565776    2.11224666266428
C         7.26013876355632    1.78640216347863    1.85760805272683
N         7.64813511541516    2.13153620445352    0.62355426162876
S         8.46232324040997    3.58680594339896    0.71703872206649
N         8.32245796056384    3.71341341139366    2.37612838202441
N         7.59566823079971    2.71526607533463    2.84465792591824
H         0.77763215733630    0.92157435615983   -0.03133801607634
H         0.72303482195498   -0.82084541345862    0.51886920066451
H         0.89136660383311   -0.42268687979164   -1.16884626536990
H         2.96363684520996    0.05042980991968   -1.29679048403939
H         4.01985226012271   -1.86232583395800   -0.55272490632093
H         2.31182231155975   -2.26195631845404   -0.71677603408000
H         3.31253933179786   -3.14976881665193    1.44514916328139
H         1.96099141318477   -2.18661666687388    1.68451809981275
H         3.66759116833771   -1.60044786904018    3.29592589388184
H         5.46945245502562   -2.33030913856304    1.20447801649706
H         5.83458383747220   -1.65027319131801    2.82520853135056
H         6.90471920445200   -0.64709091364568    0.52635004024738
H         5.05278126557112   -0.03437581182734   -0.76816858237753
H         5.58059610163415    1.39341739805907   -0.02788025557118
H         3.35806229659919    1.72739132525888    0.57887414300676
H         4.34850320118320    0.85511804150087    2.54814764583822
H         2.44647614275143    0.52803910724163    3.84802733111853
H         1.48610920737369    0.67847149416252    2.46769760724451
H         6.24680813808398    0.66961426261792    3.01301904954504
