36
 energy: -51.087064585949 gnorm: 0.117105015349 xtb: 6.4.1 (79825abcba525fcdf90b791dcacef51065a7a4e7)
C         1.84411878150121   -0.01490737417538   -1.00488673541707
C         3.05409339705640    0.20660886180807   -0.07658125029749
C         3.90843351882311   -1.07291098952836   -0.12726453685628
C         4.05543262947960   -1.84754807790242    1.17984254097614
C         3.86184555275575   -1.12200780109624    2.51340175629212
C         5.06580779862223   -0.29474881674902    2.99325650141952
C         5.14340466574034    0.94591915451110    2.08109768745357
C         3.79136992611066    1.66932677765755    1.91467091291225
C         2.69330561731792    0.76693248507021    1.32136072480654
C         2.56078098288677   -0.33269323358658    2.37879301030104
N         1.54332800409810   -1.35368190481070    2.14930730308527
N         6.20391154369536    1.91942283032159    2.34395868332830
C         7.30072392037742    2.05125002850886    1.55811847993037
N         7.62221056088203    1.35123385431174    0.46305173966230
S         9.21641954590550    1.69565230065310    0.10343344210711
N         9.31108922310866    2.99364529888445    1.14957974281409
N         8.20576985868105    3.06822249458692    1.86843209761947
H         1.24068627195436    0.89487664502586   -0.91266380307748
H         1.18482407204398   -0.84997085225389   -0.74186506946396
H         2.25359909264770   -0.15513804750254   -2.00886417056524
H         3.59975617466391    0.97742157928079   -0.63866318312655
H         4.87121913185332   -0.69392409053838   -0.49573989278523
H         3.55461399247125   -1.77299158422702   -0.89752154593291
H         5.10586193142096   -2.16806392493516    1.16604121890112
H         3.39468515238018   -2.72633139813827    1.17755459091670
H         3.63727808275153   -1.92756960091303    3.23124326131608
H         5.92881071931817   -0.95517868274154    2.83646317269856
H         5.07834231523983   -0.10571858447593    4.07724142433862
H         5.37824183324868    0.53837272359826    1.09036809521768
H         3.85154670321127    2.57795920145924    1.29926347748217
H         3.31050094843612    2.02594801753278    2.83951243805127
H         1.76449486115048    1.35536334268615    1.30172454577364
H         2.34034086178410    0.19320943682539    3.31670031800000
H         1.63010865390734   -1.64880375464762    1.17563461020116
H         0.61623537802852   -0.92733687421225    2.13818554443196
H         6.10090642720994    2.61382971249547    3.08153072678740
