36
 energy: -51.081415385369 gnorm: 0.129822919796 xtb: 6.4.1 (79825abcba525fcdf90b791dcacef51065a7a4e7)
C         1.01532353151752   -0.31459710367719   -0.10806476717977
C         2.54523067507673   -0.47054503573800   -0.20768126728967
C         2.97292606242075   -1.91045760574241    0.12901642786192
C         3.06803682836660   -2.21598286763949    1.62160094443729
C         3.84532357076305   -1.07063275030170    2.27448933966679
C         5.29170662656354   -1.23364584276337    1.77896347997550
C         5.94248149334520   -0.04029234000210    1.05115066983155
C         4.94402046575890    0.58859747890960    0.05787953179959
C         3.45719805448061    0.58838275586095    0.45967139208553
C         3.41232139009639    0.36321598047117    1.97366892557134
N         2.17082217343699    0.71226530607390    2.65714267428830
N         6.48889991814540    0.88641796380295    2.04317640702534
C         7.44857479986588    1.82734466668264    1.86540779163367
N         7.99157895617561    2.08156811352715    0.66830111713576
S         8.86263614941203    3.49362134434290    0.86017793624493
N         8.54343079152986    3.60544357708145    2.49534581214927
N         7.74528893253664    2.65621224002645    2.94918588432647
H         0.81798126227762    0.69642952182129   -0.48119210854204
H         0.55157568439751   -0.42650580296078    0.87864455945926
H         0.60988960104294   -1.02691455639604   -0.83162307905168
H         2.83620522071981   -0.27633609610726   -1.24953198375183
H         3.96830288894278   -1.96257328559064   -0.33236219051688
H         2.28860797065521   -2.63348587338146   -0.33739094019301
H         3.67009625393256   -3.12331849829087    1.76508997700052
H         2.10505813630401   -2.45042850989100    2.09758399152803
H         3.80149778039009   -1.24157217177503    3.36238445960524
H         5.47335715996185   -2.14024072116605    1.18683629535845
H         5.93712215345082   -1.30801771887785    2.66711915505858
H         6.82736422258870   -0.34162187640846    0.47759093570102
H         5.10316509521093    0.13464327522589   -0.93033046550732
H         5.23579118406047    1.64686385242270   -0.03532808368462
H         3.01067838857021    1.56676814947727    0.23008899641047
H         4.11840145670261    1.14006957541787    2.29427305998270
H         1.48184766936062   -0.03824651165232    2.72578986459075
H         1.73499344637960    1.49823813832714    2.17372304283764
H         5.92477201641323    0.78981444520316    2.88534679588043
