36
 energy: -51.096689804379 gnorm: 0.124401365240 xtb: 6.4.1 (79825abcba525fcdf90b791dcacef51065a7a4e7)
C         1.97200464606858    0.14434652526560   -1.05715343643105
C         3.15239299269665    0.01153262997052   -0.07536786023296
C         3.57650466146555   -1.46097502969379    0.07121790324274
C         4.33777081517467   -1.81961634462148    1.34481538213596
C         3.81139720178773   -1.08478029094730    2.57980997228115
C         4.94354488585301   -0.12147282429421    2.97277747515812
C         5.15919563196651    0.97085358929636    1.90618018604544
C         3.84624487683492    1.75345655709692    1.69952268814481
C         2.78336776851956    0.73699423344111    1.24216696474514
C         2.51708869611058   -0.31505215106228    2.32253560493250
N         1.47137031873671   -1.26107687146958    1.94596898706455
N         6.24033204736294    1.85740387882602    2.33821350109477
C         7.37160538360858    2.08018576407667    1.62511500169281
N         7.58300161924936    1.42526124228056    0.47666694063895
S         9.11253175256683    1.83963416820285   -0.05085966077107
N         9.38373166257792    2.85084676054303    1.24993623131473
N         8.39106747679794    2.89605747121751    2.11977251873702
H         1.61751053138194    1.17898694436449   -1.12192958765241
H         1.07118427663864   -0.36196917159865   -0.69198497549584
H         2.24759455487024   -0.30241818297465   -2.01619512182151
H         3.96589690951658    0.51437862561365   -0.61684130826380
H         4.17129138491689   -1.89760643993709   -0.74238092884888
H         2.64719671029509   -2.04439848767271    0.13904685539445
H         5.37087622972705   -1.46766424299407    1.22174822070979
H         4.31933271518497   -2.91879682793394    1.36256054072101
H         3.65286015928552   -1.78522240237051    3.41581454270586
H         5.89817756040224   -0.66312316938164    2.94419139440381
H         4.69270386870142    0.33681599491872    3.94126238398397
H         5.40154130244220    0.53007847453026    0.93161690941638
H         3.88837955202060    2.43419669159694    0.83767700653199
H         3.55692838887448    2.28604649744061    2.61951695581731
H         1.80266008894430    1.19933550076834    1.05837664480109
H         2.27244363955756    0.18268590911653    3.26976482718846
H         0.58507991481336   -0.77370514536719    1.80588180635642
H         1.30814380002030   -1.99635014271466    2.63453621868938
H         5.98763315462650    2.55647910335417    3.03410184344360
