36
 energy: -51.083537738199 gnorm: 0.125038989536 xtb: 6.4.1 (79825abcba525fcdf90b791dcacef51065a7a4e7)
C         1.01168854787293   -0.36724096363726   -0.27054309769257
C         2.55175641614123   -0.41789196409680   -0.24853091697889
C         3.08353529115130   -1.84840239344727   -0.04731445669731
C         3.06190565899089   -2.19430391203968    1.43932087228656
C         3.94303229968311   -1.26478814891663    2.27710434094261
C         5.40911242155195   -1.20555129179724    1.81749236041154
C         5.83658099118869    0.10092551027584    1.11913644511192
C         4.76057163996544    0.72863210351136    0.20962960208759
C         3.30813958351187    0.55337898077637    0.69109104579052
C         3.39930823846441    0.15870549314310    2.16785225228965
N         2.24279100004150    0.48471375830327    2.99639229696774
N         6.45547519022266    0.99549972032355    2.09800676130279
C         7.47603895260550    1.86000771265600    1.87665600318688
N         7.81720131228520    2.15849208066338    0.61686919827417
S         8.80166271723660    3.50321345923793    0.72646769634362
N         8.76560163394296    3.54493424662166    2.39533834077296
N         7.96624143788721    2.63821365163913    2.92724284868908
H         0.60833001754073    0.64944382713062   -0.20732319780902
H         0.54212326818226   -1.03161981783202    0.46382065065048
H         0.74744155941491   -0.80353209435377   -1.23756586818868
H         2.78801782003360   -0.14708309083975   -1.28712579814626
H         4.02479465255974   -1.83572073081412   -0.61320428183579
H         2.46972857195408   -2.59534077130369   -0.57068940865885
H         3.39512606723794   -3.23328956175893    1.56500136992319
H         2.02107254774345   -2.10015643350082    1.78086923609501
H         3.92587290546182   -1.67403261228092    3.30027652089762
H         5.61695343252951   -2.04714694409678    1.14366399219783
H         6.10150763851443   -1.36583511601926    2.65761784754055
H         6.70564811818165   -0.12557029205047    0.48968454809502
H         4.92687079147892    0.43396325359801   -0.83606408971097
H         5.06002676809062    1.78793055415052    0.25388970199611
H         2.74168602246432    1.49321625528880    0.61924299508789
H         4.11751889762956    0.89313352377979    2.55466811630747
H         1.36378028416654    0.06508961233956    2.68992527636983
H         2.06173434556855    1.43381546617512    2.66803432800702
H         5.99591237534491    1.07356718908685    3.00328626397785
