36
 energy: -51.089912450549 gnorm: 0.128506865984 xtb: 6.4.1 (79825abcba525fcdf90b791dcacef51065a7a4e7)
C         1.81018885959714    0.44122753890832   -1.02784190058742
C         2.99438815338799   -0.12666501638047   -0.22159804812394
C         2.93272577770930   -1.64518601847816    0.02320513656674
C         3.96258249494472   -2.10389547851860    1.05237034960126
C         3.88263537104291   -1.35662714728156    2.38558574687485
C         5.09775481552908   -0.53118960219192    2.83976705647150
C         5.42890462522309    0.53795069175929    1.77929978976306
C         4.20833182035739    1.44391192335325    1.51766903102507
C         2.97539510949217    0.59882360215996    1.14649465912380
C         2.72034306276341   -0.36837432866819    2.30596829837837
N         1.39790199210295   -0.98263368226530    2.24172539679495
N         6.48021127257286    1.36519165711707    2.37251717426569
C         7.44203572649383    1.96772506314170    1.63105387749337
N         7.92596732586420    1.52724114715493    0.46300782923293
S         9.23423098085934    2.52468394064469    0.17490063825024
N         9.04582074992575    3.53932386709996    1.48759925402466
N         8.02964976968770    3.09658544554235    2.20552723540980
H         2.02701284009237    1.40794993733095   -1.49557898758784
H         0.95846576376700    0.64896919084242   -0.37012456315267
H         1.46791671119088   -0.27502418916370   -1.77960162887862
H         3.96453989806504   -0.01513426120679   -0.72578321083671
H         3.14023795913064   -2.08421171031457   -0.96196308659116
H         1.92345987363051   -2.03435004818843    0.21949736727001
H         4.91506315612443   -1.95470204811485    0.52621020340042
H         3.87632160613679   -3.18560211488250    1.22935167262579
H         3.59820974102497   -2.14846876784283    3.09744646073492
H         5.92252499739139   -1.23124387988372    3.02739418472698
H         4.93781847255235   -0.07343805699103    3.82759130596583
H         5.79038295828630   -0.04650708400455    0.92458918935456
H         4.49441712653797    2.19274548860772    0.76576218058456
H         3.92514319308356    2.00684848716915    2.42135711000314
H         2.15730165024325    1.33105842484635    1.08419600419783
H         2.87559565575868    0.34790370599854    3.12308517174537
H         0.67058788546702   -0.30199493663917    2.46625018657291
H         1.28121347653187   -1.62692204041789    3.02445830964246
H         6.26834490211277    1.95560492489074    3.17460713694965
