36
 energy: -51.083822863186 gnorm: 0.137699190445 xtb: 6.4.1 (79825abcba525fcdf90b791dcacef51065a7a4e7)
C         2.19265368688028    0.39460777907321   -1.06465211852187
C         3.32140057505434    0.01599100792273   -0.08616405071487
C         3.30488675754529   -1.52178807472211   -0.01834303667927
C         4.09292392372016   -2.03270530365837    1.18505269278489
C         3.73259886224960   -1.25121881350680    2.45063932531711
C         4.88712941039504   -0.38015453993825    2.97260611161582
C         5.33856970909367    0.69261359381245    1.96132860582303
C         4.14019469652612    1.62078671852040    1.67601058631253
C         2.95979370399440    0.73396506156667    1.23751487273389
C         2.54777884773721   -0.30048559582249    2.28873231730541
N         1.34843816087695   -1.02506316590348    1.88024563998857
N         6.48888268726130    1.34863665857598    2.58413992799894
C         7.44490288139716    1.92122368263905    1.81207121978960
N         7.51076658710311    1.56126459387982    0.52418967370738
S         8.84348488383915    2.31174600614745   -0.14669873539912
N         9.27537035144757    3.08143534584494    1.27077207997416
N         8.40170304744259    2.84698450332292    2.23294649175970
H         1.18235639892556    0.14172947001847   -0.72451277669507
H         2.21867854969910   -0.11602850006662   -2.03406133181353
H         2.30838221554048    1.39923882979784   -1.48014317128134
H         4.32723963390366    0.34068180257700   -0.38732826575869
H         3.67137806837509   -1.78730329278620   -1.01911627865024
H         2.24845455726938   -1.82102286863578    0.03648855368638
H         5.17326209208041   -2.04758307912551    0.98764276000441
H         3.88140734768806   -3.09573168233045    1.36968269864170
H         3.44047799515413   -1.94068023982461    3.25932042110370
H         5.77302040107037   -0.99177066670616    3.18858912273979
H         4.71115289791841    0.11279878558198    3.94056383348856
H         5.76638658310748    0.14849523839653    1.11062558176420
H         4.30000436592120    2.49300092134572    1.02665423219983
H         3.81924519278466    1.90046116434868    2.69214008438978
H         2.08237343146900    1.35456066213023    1.00444698453664
H         2.49772848397155    0.19729137877971    3.26574338009451
H         0.56385757296321   -0.42242205793281    2.13307620568027
H         1.21684259595784   -1.79060972354065    2.54207310244458
H         6.11072511107222    2.00195033013161    3.26751507769162
