36
 energy: -51.090683374494 gnorm: 0.123458179800 xtb: 6.4.1 (79825abcba525fcdf90b791dcacef51065a7a4e7)
C         2.10421160120832    0.37583074626721   -1.16173923342942
C         3.23078379378514    0.06399424292382   -0.15752201841728
C         3.33434548229034   -1.46223890360574    0.01430435782330
C         4.05121961564531   -2.06701426947273    1.21868741436897
C         3.73889736748139   -1.22468467633199    2.45771951131339
C         4.92340313884076   -0.40353480564041    2.99325857829380
C         5.27086045488043    0.72745826931365    2.00460288072057
C         4.00746887023691    1.57911775823120    1.76474409242811
C         2.87588496552769    0.69194152073600    1.21291632552540
C         2.51400784838945   -0.32569527462513    2.29844057221750
N         1.38544695452805   -1.19406231975862    1.97815768462813
N         6.39773832643002    1.56329220294949    2.42054522164588
C         7.43776378892976    1.95651089800912    1.64488635289091
N         7.53080239229909    1.77259945955302    0.32198505702310
S         9.04575067552905    2.33872270711988   -0.09501354519012
N         9.45035126061607    2.96486718624141    1.39911218895404
N         8.40285421506072    2.80713490000493    2.18772604972975
H         1.26583797837300   -0.29893708176579   -0.95640809245782
H         2.39562306866166    0.14296639531174   -2.19228980717818
H         1.79188105723144    1.42010010835445   -1.07653011371251
H         4.14016544117029    0.59715583921046   -0.46832736434709
H         3.65762672789063   -1.85776339026242   -0.95801808191986
H         2.30210723615874   -1.77588469658639    0.22574583642277
H         5.13495101547044   -2.11658306486061    1.04724704748053
H         3.72404765265331   -3.10139976685939    1.39717481133365
H         3.42188925899260   -1.87823378157961    3.28659599843925
H         5.78079270108280   -1.06098108225358    3.18863854621722
H         4.77345650460929    0.04949915865347    3.98481750876840
H         5.47476418513580    0.18839638101022    1.07153093545561
H         4.34283384575665    2.44257735683175    1.17319671144633
H         3.63450998964414    2.07061763724423    2.67747355895883
H         2.01918084945229    1.35275328095566    1.01616323620988
H         2.43533946365972    0.16639828849194    3.27644507751654
H         0.49013796329423   -0.71207142791196    2.07182140686614
H         1.38348563377916   -1.99217995521415    2.61408135410771
H         6.42881994827646    1.81559939754911    3.40654648446429
