36
 energy: -51.088851526477 gnorm: 0.129609495815 xtb: 6.4.1 (79825abcba525fcdf90b791dcacef51065a7a4e7)
C         2.10155284690479    0.33124659038285   -1.17193764868382
C         3.08754440635196   -0.07690965161975   -0.06014260655455
C         3.22773881569121   -1.60986758875524   -0.05541092096157
C         3.94740240669530   -2.04860237004828    1.21730129517686
C         3.77650619443334   -1.23864418841819    2.50455692618323
C         5.01678049432761   -0.43583343575177    2.93041800879862
C         5.24683573152965    0.68468160915185    1.89657438463594
C         3.97064006986028    1.54291825271600    1.77923332062598
C         2.82258516550310    0.64291485312070    1.28522776761599
C         2.54910643394639   -0.33175656492862    2.43419580946274
N         1.37247137784198   -1.14981764296169    2.15743211521319
N         6.32742652085450    1.60860435374917    2.24323051566497
C         7.46747936036366    1.89578607295292    1.56815510207830
N         7.76165175831562    1.69354167210095    0.27776474749966
S         9.13813244798199    2.57470070962385   -0.06619939695021
N         9.38049976901824    3.06088224437657    1.51274197347408
N         8.35750286893485    2.71047079041038    2.27085180861296
H         1.11984668195945   -0.14001165512391   -1.05147399224228
H         2.52341656159991    0.02908290696940   -2.13729200936801
H         2.03419442870574    1.41833303214639   -1.26688693094868
H         4.02760645457539    0.33733822721514   -0.45067846641282
H         3.79667070319586   -1.96566469190458   -0.92494310584788
H         2.18694104088696   -1.93996103033937   -0.18337682315015
H         5.00149934294415   -2.20902698080865    0.95373689792277
H         3.51459784289582   -3.03949577633541    1.41645716293241
H         3.59666335981921   -2.00873551496268    3.27219791876011
H         5.87378779294168   -1.12121608851067    2.89415628511795
H         4.89386422654427   -0.10653611398602    3.97318727107504
H         5.57623999579151    0.22484927451576    0.95698151399027
H         4.16362214125997    2.37992601551416    1.09356840872057
H         3.63716272786432    2.08282971674150    2.67980758378153
H         1.92778231658112    1.26274504730346    1.12881716974322
H         2.36111663794488    0.23920829887109    3.35261648801966
H         0.59183398420276   -0.56372519899403    1.85782035632480
H         1.18485376620193   -1.45422734578978    3.11321916548912
H         6.55665102882618    1.76892729111791    3.22229955495294
