36
 energy: -51.093800529598 gnorm: 0.121666306568 xtb: 6.4.1 (79825abcba525fcdf90b791dcacef51065a7a4e7)
C         1.73678598099120    0.29943478064954   -1.04555295871277
C         2.97505346072802   -0.07217031939518   -0.20682629624139
C         3.12990274046120   -1.60047721350202   -0.10714345962941
C         4.05897500001374   -2.09918839860023    0.99662834338079
C         3.88033652186734   -1.34084025005054    2.31392148914293
C         5.03946682598034   -0.44622880887115    2.78320863913517
C         5.33574601314714    0.73665385867895    1.83964132923324
C         4.06962526464170    1.55731430490179    1.51953335574073
C         2.87510413824759    0.65536360953790    1.15665333831767
C         2.70878925535199   -0.36062495132437    2.29023579110687
N         1.36621800088184   -0.93298880462332    2.30417058334593
N         6.35350191807938    1.59486749181383    2.44719581567511
C         7.45984563171552    2.03249363443035    1.79726691752578
N         7.78799018918951    1.51414418465269    0.60723226829710
S         9.15424952088846    2.31013381004256    0.06947058480335
N         9.41708461699272    3.11889627645618    1.50647832229837
N         8.35750924845181    2.98517533500385    2.28330527163253
H         0.82537437799134   -0.01704701322733   -0.52640847660465
H         1.85396785132470   -0.19583985534669   -2.01619829925055
H         1.50421232082653    1.36608520548767   -1.10450907597082
H         3.86676439503839    0.32798979710893   -0.70937949433391
H         3.50334819768748   -1.86612754456822   -1.10530662223993
H         2.11000798405448   -1.96823154513553    0.07497850193260
H         5.07990182467149   -1.86381273109377    0.66703871307220
H         3.99007291774552   -3.18761876404246    1.13599992057539
H         3.72980288451174   -2.11904119707723    3.07968888733850
H         5.95349227804476   -1.05388633154554    2.81211564660431
H         4.84924019842131    0.03046881077882    3.75659761209928
H         5.78960727230128    0.35757927118837    0.91600712985997
H         4.36046738032377    2.32775385152640    0.79166371329951
H         3.84368949242780    2.00995518439980    2.49821349116437
H         1.95787115002254    1.26057511938474    1.19822940667402
H         2.73739182955352    0.18400137940418    3.24281211391101
H         0.70723392431997   -0.15311948924931    2.31866678102638
H         1.25454184300894   -1.54962038493874    3.10958255716520
H         6.06587015974854    2.15994742961225    3.24392421048581
