36
 energy: -51.096460720607 gnorm: 0.121231792587 xtb: 6.4.1 (79825abcba525fcdf90b791dcacef51065a7a4e7)
C         1.84608260935523    0.39505833522036   -1.10188690103090
C         2.94904947831822    0.04200003213335   -0.08518971901107
C         3.16306269559338   -1.48226790695947   -0.06414984613606
C         4.34467405258564   -1.77574803034499    0.85664570155737
C         4.14381726534726   -1.13466488674656    2.23175804807076
C         5.18038839124223   -0.08954670331805    2.67604573356438
C         5.11129949258991    1.17203268788634    1.79232842271147
C         3.65889130693367    1.69011578171434    1.82571861361102
C         2.68211304268339    0.60649354406921    1.33201331047428
C         2.73894271661294   -0.54440802534397    2.34052643882526
N         1.58697064290890   -1.40716829524583    2.09783875408024
N         6.08857011504011    2.17737526881482    2.21150457821364
C         7.28305302648786    2.27792414849042    1.57824228875771
N         7.58536194839286    1.42207878059024    0.59402408102122
S         9.22209969150542    1.59510400371496    0.31011652370927
N         9.48898717905327    2.68589804189569    1.54587931857601
N         8.34771947426170    2.98669249296389    2.13839267711128
H         0.88424800366224   -0.00570046427523   -0.76334675054639
H         2.06410167496865    0.15291782933231   -2.14831732302647
H         1.72975305917869    1.47412942238288   -0.97004415399207
H         3.90738621401607    0.43469664620500   -0.45290750957467
H         3.37747705366957   -1.87018528409171   -1.06909161124022
H         2.29261754135044   -2.06966774258916    0.26124790209393
H         5.21969351449235   -1.23315915910747    0.47420496963001
H         4.64019108731879   -2.83036354195000    0.95312607490805
H         4.25648479993530   -1.95594849903331    2.95801979605689
H         6.18580639299605   -0.53002350937866    2.70135728767956
H         4.94806234496558    0.23483657249905    3.70157633999314
H         5.39259990823349    0.92984682468575    0.76033819021373
H         3.64483940002865    2.60952341662070    1.22367820637307
H         3.43537403549825    1.99795080505134    2.85965440537207
H         1.68482973428854    1.05805443420857    1.43615146745372
H         2.65995024828656   -0.20579924502164    3.38165177376258
H         0.72359568095077   -0.99168172472071    2.45085562015440
H         1.71118466927518   -2.25746774269838    2.64825338367140
H         5.83272511836089    2.90323672056861    2.87820690150970
