36
 energy: -51.086853245345 gnorm: 0.126312764893 xtb: 6.4.1 (79825abcba525fcdf90b791dcacef51065a7a4e7)
C         1.31962905191437    0.18780094740774   -0.75674704753003
C         2.68564123765558    0.08094358804573   -0.05144474736351
C         2.99368261193290   -1.42559899809120   -0.12269703041660
C         4.28129736990564   -1.80171837799845    0.60585136119607
C         4.27115604402207   -1.13748629483600    1.98460360533129
C         5.31610557886795   -0.01913920056714    2.13131200809595
C         5.06594244318978    1.34518390017185    1.45799715898367
C         3.61790898074053    1.83182849030914    1.67104777234556
C         2.68379264228051    0.63925141314909    1.39308325981552
C         2.90334129076184   -0.55152840276876    2.33049693658803
N         1.78061906126884   -1.48375604211427    2.30332047733541
N         6.02977234529293    2.40728112324971    1.74861988222877
C         7.36988779794756    2.25248968325926    1.61426656879189
N         7.86999682964710    1.11886950024892    1.10697601077314
S         9.51288925699442    1.35630262560942    0.92263486929661
N         9.49053501696591    2.89044632647255    1.58147752582565
N         8.28877531830427    3.22422100269938    2.01553910659244
H         0.51368169824380   -0.28370590693156   -0.18362142534316
H         1.36626433186796   -0.16311567267973   -1.79398550130285
H         1.02836950965248    1.24125536472722   -0.78341411745304
H         3.37915542978007    0.65614550038063   -0.68074360654622
H         3.02664477913334   -1.75455701052712   -1.17010403332411
H         2.24176528481749   -2.04940784143992    0.38136629360212
H         5.25036339305323   -1.63089009941995    0.11794629839831
H         4.18888053394365   -2.87802169998548    0.81050445687225
H         4.48572486228583   -1.83054271243451    2.81423594780436
H         6.28872882739466   -0.43224438688148    1.83319471316624
H         5.41786681128964    0.27406031430223    3.18705420050124
H         5.13102034942046    1.27512678161874    0.36545673235164
H         3.47146257408544    2.65016775936300    0.95213557725208
H         3.50674644503448    2.25202561773128    2.68338309231074
H         1.63890212483454    0.92056473585385    1.58902335911436
H         3.08562101802440   -0.19269606857533    3.35169772813728
H         0.87441888944491   -1.03682319855732    2.45069273429625
H         2.03950073986483   -2.25057381669752    2.92490337300921
H         5.83741610162912    3.23379664451380    2.31137619079844
