36
 energy: -51.093416010411 gnorm: 0.133564281882 xtb: 6.4.1 (79825abcba525fcdf90b791dcacef51065a7a4e7)
C         2.43196995471511    0.49956674946501   -1.28321083861949
C         3.35540682523915    0.09943377155636   -0.11615600869552
C         3.27426902307670   -1.43245997845570    0.01173078964640
C         4.00656650104463   -1.95121321847133    1.24657317104089
C         3.70888723308211   -1.22136066996778    2.55842952117666
C         4.98467774633696   -0.59244497514405    3.14235303328179
C         5.49957484212325    0.48547880480955    2.16753341777625
C         4.35364749224268    1.46198207092046    1.83241218939891
C         3.09545046264161    0.79970080867187    1.24046510162716
C         2.62567476296369   -0.16861705164911    2.32976477647386
N         1.40224451718945   -0.80335060227950    1.84953166783912
N         6.66674874880595    1.15138825400835    2.74697264676300
C         7.38995124706038    1.76748552905528    1.77985170788885
N         7.50874765479973    1.35159668120331    0.51277975659262
S         8.63850466503087    2.29872338957558   -0.27210989177287
N         8.77793078260195    3.33603178971241    1.02893656839510
N         8.07187639322296    2.94942797406239    2.07586829874331
H         1.52940410214882   -0.09429057277900   -1.10141101121178
H         2.85369479076722    0.26443946147465   -2.26710322626891
H         2.12959526159619    1.54501377942925   -1.17871446124085
H         4.36643042205290    0.39848573687243   -0.42637430258418
H         3.70454227256712   -1.96710745766579   -0.84581120740804
H         2.22833568868617   -1.77090580952680    0.02038037205647
H         5.07932015471004   -2.07352226395378    1.04517141203028
H         3.71164444447445   -2.99022564392511    1.45230779296440
H         3.34157096784981   -1.91079571691320    3.33587072736818
H         5.70702876479623   -1.41518725938407    3.22499637434854
H         4.76606571321027   -0.15661471124947    4.12884865732108
H         5.74884274103456   -0.06592172160838    1.25286918313360
H         4.65879594043436    2.15057444574510    1.03198393379776
H         3.93684787428129    1.92983149896272    2.73858022138436
H         2.35577331985308    1.59712920698416    1.07825686198048
H         2.36096164754746    0.45014790009086    3.19688325111588
H         0.67958471720429   -0.08206746687433    1.83612471428152
H         1.02180469859314   -1.46001975576600    2.53176745958801
H         6.55676018708314    1.66701111633828    3.61809781784707
