36
 energy: -51.080591040887 gnorm: 0.129344981356 xtb: 6.4.1 (79825abcba525fcdf90b791dcacef51065a7a4e7)
C         0.91122495048943   -0.78788681184330   -0.22597277247764
C         2.43444224643630   -0.56088363857182   -0.28198777440641
C         3.33477835640898   -1.77755619852341   -0.00138193678516
C         3.58443181596246   -2.17047769191940    1.45240143900999
C         4.00845442962360   -0.95937033149442    2.28648091285773
C         5.41180227818018   -0.49539541249095    1.86282406343813
C         5.48823306614851    0.72435656655362    0.92278396433150
C         4.18640321284487    1.14871441250078    0.21273201202924
C         2.85344420551808    0.55554654305905    0.70613828508341
C         3.03920330293865    0.21739155612236    2.18804490206671
N         1.81777485911492   -0.04185207610296    2.94382090071445
N         6.07558638470362    1.81573315486120    1.70085422808502
C         7.39524032985841    2.08250883743538    1.85980327240226
N         8.28633947574694    1.47672431780362    1.06512416340518
S         9.66645925863282    2.41719553791258    1.04979646991432
N         9.04949493507491    3.48885749108170    2.17187754276441
N         7.81863208739888    3.21237920010920    2.56248958470258
H         0.46220543804355    0.21146566944772   -0.22162385136649
H         0.54960768205189   -1.31234535815435    0.66585518109889
H         0.53411431759895   -1.20991780941152   -1.16138009187444
H         2.69132563251735   -0.18542411382574   -1.28242631203905
H         4.30065829546108   -1.49127970689490   -0.43896964736949
H         2.89189722896926   -2.62490918490813   -0.54401088405164
H         4.38863162978028   -2.91758347818209    1.41474257318576
H         2.63874843365440   -2.61430387719113    1.79526267966197
H         4.13397586581373   -1.38027411554259    3.29729302579132
H         5.98595916850641   -1.29881722889762    1.38284174744699
H         6.05426452614209   -0.06345598540932    2.64486207787287
H         6.22843353522259    0.56595090447725    0.12918545627236
H         4.28135907471753    1.03150596757228   -0.87593964601967
H         4.03517611361012    2.23622674815232    0.30324606993724
H         2.02681745712213    1.27928831056543    0.65910722163052
H         3.43610896289614    1.17945055148396    2.53696600880220
H         1.38841972009367   -0.92827867223103    2.67443578439686
H         1.13030818347912    0.69868641660887    2.80103849427864
H         5.40751995034280    2.31994410291046    2.28075252627474
