36
 energy: -51.084633315722 gnorm: 0.133770183608 xtb: 6.4.1 (79825abcba525fcdf90b791dcacef51065a7a4e7)
C         2.34538258029907    0.54865925514676   -1.16243305482727
C         3.37024602625336    0.01860042540058   -0.14088928897631
C         3.32876000378775   -1.50371149130590    0.08379329311913
C         4.00703163206940   -2.08998903048988    1.31927965039667
C         3.76865363727817   -1.27350417985989    2.59159771911516
C         4.88724936188494   -0.37013703289195    3.13640458781057
C         5.32353882399251    0.59080502949002    2.01232545273361
C         4.09577628844107    1.49036585202854    1.76251769893085
C         2.93639032218138    0.64072509092349    1.20933377806632
C         2.57610057358213   -0.36114727645133    2.30994525599034
N         1.39659410176253   -1.11765748470512    1.90159624356276
N         6.54628877559244    1.25159448380847    2.47027744223539
C         7.37207663767870    1.91235089308949    1.62210529412105
N         7.30871102569805    1.98325886893089    0.28662623749842
S         8.75338551911844    2.63948914253251   -0.23465018137021
N         9.36596783409274    2.85250149196351    1.30403071436527
N         8.51163783392339    2.44743241771543    2.22602890218763
H         1.32899306640386    0.44752492356566   -0.76611622451341
H         2.49638115498163    0.11650511306818   -2.15823582572682
H         2.52086474457251    1.62344247690433   -1.25916204324601
H         4.39345742607691    0.34995069382430   -0.36690179235458
H         3.62177334296189   -1.97566854845621   -0.86370922449872
H         2.26246805840277   -1.76467221918288    0.14310564805040
H         5.05425555077291   -2.21238696166163    1.01160545050194
H         3.65496565690383   -3.12491861559253    1.43685046119538
H         3.53764598969798   -1.97777700435722    3.40725208829099
H         5.71677735088342   -0.99557970659214    3.49169402280247
H         4.62052699109292    0.33107851636057    3.94143180087085
H         5.66358017783553    0.02617979075349    1.13576516903320
H         4.28508772892221    2.35758793402764    1.11440699592978
H         3.73925414718186    1.77353194797677    2.76573974285920
H         2.02887766285603    1.22524222336081    0.99936618378433
H         2.41020653069545    0.31230244393993    3.16069917698408
H         0.64026836317423   -0.47486547417509    1.66189620591255
H         0.94636837228157   -1.68409466683212    2.62120740610508
H         6.58391716536442    1.35376429912537    3.48268492944121
