36
 energy: -51.088897791488 gnorm: 0.135485729158 xtb: 6.4.1 (79825abcba525fcdf90b791dcacef51065a7a4e7)
C         2.22001089250111    0.58475700231655   -1.22449957499515
C         3.21409402675233    0.14152679481522   -0.13353453460470
C         3.40989701214161   -1.38486005392373   -0.09557122607139
C         4.31623362380529   -1.80476467652736    1.05873994205960
C         3.99704489652015   -1.21860468695139    2.43598347914407
C         5.04988217911947   -0.25053665517079    3.00036007611856
C         5.22807346480980    0.93557026011914    2.03148951446608
C         3.88538619299928    1.65281786183841    1.78297168955039
C         2.84210437035728    0.63429244340851    1.28673930291193
C         2.67030409777559   -0.46784312154303    2.33587433042571
N         1.51677858312105   -1.24618668692978    1.89558778812545
N         6.13711693192361    1.98140034745050    2.50197810514195
C         7.23019313271735    2.07334130250601    1.70532769996874
N         7.55643492771839    1.10798079840313    0.83688494242169
S         8.96560695613824    1.64716112615898    0.12066539798747
N         9.08679350483393    3.05491239078513    1.01045214033470
N         8.07065595761238    3.17961230965814    1.84469177615910
H         1.24524270255062    0.29466580676123   -0.81704787854188
H         2.41710183688466    0.15021745794108   -2.21116641202209
H         2.14297391686027    1.67024400016063   -1.32982154800577
H         4.25716444180362    0.46812872948128   -0.24830153704876
H         3.80977526305415   -1.71909586951843   -1.06239337889983
H         2.42926807095978   -1.85007446655220    0.07918393898006
H         5.34910923420241   -1.62631714820110    0.73064389398182
H         4.15284551459190   -2.87620315302649    1.24360876471832
H         3.83116020478257   -2.02799409189094    3.16538583821370
H         5.99061367445398   -0.81270579001490    3.06756037863618
H         4.82632667948535    0.00295600921536    4.04758365551076
H         5.69155679955296    0.54770287339330    1.11632299595087
H         3.94656898806930    2.48315708350256    1.06550820827626
H         3.55113195256995    2.10529047893437    2.73022462988085
H         1.81420739779837    1.02498992675160    1.27629287963785
H         2.55250445606297   -0.00448681602137    3.32393390161788
H         0.64990591987534   -0.77425245672852    2.15726727837572
H         1.58856962880925   -2.10643560933453    2.43984172327009
H         6.06848518153955    2.51738074421008    3.36501816834764
