36
 energy: -51.093863191139 gnorm: 0.120275176441 xtb: 6.4.1 (79825abcba525fcdf90b791dcacef51065a7a4e7)
C         1.95511095484156    0.36081803521256   -1.22340764312296
C         3.00719051974451   -0.12934498186700   -0.20963849043614
C         2.97987780229743   -1.64423243658863    0.06240364495259
C         4.01719821127655   -2.00069593782929    1.12405350778996
C         3.74025253766155   -1.36069790950429    2.48639283905732
C         5.02412051287683   -0.64348344641642    2.93520184329563
C         5.51128232998365    0.45326652621476    1.96714976983792
C         4.32310158098161    1.27552950707224    1.42759025415688
C         2.95483488260550    0.63002681355754    1.13905922433724
C         2.68729070210833   -0.26166143246157    2.35487776571342
N         1.35903191529735   -0.81419424685413    2.10844682244144
N         6.48974747297066    1.40143350659405    2.50106498093822
C         7.45257189884399    2.01788253155670    1.77244964483167
N         7.47948214251634    1.90662381282580    0.43849133227157
S         8.90206575825097    2.64616423442384   -0.02925591932465
N         9.35424488202053    3.14562654242503    1.49856661407475
N         8.47333988417758    2.73935235602626    2.39466316294639
H         0.96337986923171    0.29030039713515   -0.76314734784381
H         1.93445553204035   -0.18682848812971   -2.17253227331088
H         2.15677014665427    1.40537137222106   -1.47550157759714
H         3.99199309464904    0.14416658912971   -0.61360819746142
H         3.12543899065140   -2.26768042827672   -0.83005690775003
H         1.98618389118100   -1.96657131635439    0.40484637015369
H         4.98467491968188   -1.62534591471662    0.76429833716248
H         4.16956511542100   -3.08332741657060    1.24044077731799
H         3.35875151097284   -2.04395498857791    3.26245566492556
H         5.90261926925475   -1.28881015026588    3.06680416182965
H         4.78887265669819   -0.24561351209029    3.93383632176132
H         6.10196030762083    0.08058504158164    1.12157556929553
H         4.60178636367541    1.75254190995302    0.47745637016935
H         4.09725043785290    2.06523344437864    2.16182759894777
H         2.17588616678026    1.40624194659612    1.13165371658135
H         2.66057665691118    0.29766571363370    3.29895248954816
H         0.71922896726074   -0.02533282922310    2.00348896694294
H         1.05374860530240   -1.37093912403341    2.90734090715740
H         6.52345244832667    1.66759318651015    3.48333096946627
