36
 energy: -51.088297217422 gnorm: 0.132237653952 xtb: 6.4.1 (79825abcba525fcdf90b791dcacef51065a7a4e7)
C         1.65867620185904    0.12384856922221   -0.88724737220554
C         2.96199678210992    0.03354574217182   -0.06989802935250
C         3.41760002404573   -1.43552417193454   -0.00747881103149
C         4.32591052288148   -1.73888074861787    1.18127982234055
C         3.96726773268993   -1.06386266245844    2.50717225405672
C         5.02259630042078   -0.01577492353846    2.89696293955988
C         5.18542814802791    1.02709605869555    1.77303327012620
C         3.85884072095519    1.74988204660026    1.46196959109004
C         2.75426060731016    0.68612800542740    1.31911392770473
C         2.60690282593862   -0.37502890959651    2.41325019619664
N         1.43787851413198   -1.23136746997639    2.23901326293718
N         6.16960360308089    1.99686552808686    2.25513907081854
C         7.39453936512759    1.98013841083524    1.67447291466138
N         7.58739752166890    1.47681886111540    0.44890259519796
S         9.12068881490838    1.97409593877242    0.01165554139094
N         9.57342199967851    2.60192284831605    1.49119475491893
N         8.50778088954137    2.57573726685737    2.27078739815323
H         1.32340234009640    1.15324476443969   -1.05540720969638
H         0.84126884337987   -0.42309694793030   -0.40363933336115
H         1.89123852331902   -0.29723439505645   -1.86903826682739
H         3.77899114095656    0.51288763326852   -0.62720205130203
H         3.81446530614024   -1.91486890912033   -0.91251353699228
H         2.50670325686353   -2.04250142097625    0.09471050197588
H         5.38353896253196   -1.56993203545965    0.93796725705281
H         4.29956672043142   -2.81506245504295    1.40486766766395
H         3.80089740679952   -1.91428751376403    3.18816803634553
H         5.98378870967213   -0.50615349461266    3.09985157091816
H         4.72026736433188    0.46723265470511    3.83835220966011
H         5.64657670058272    0.54897368774030    0.90037714869233
H         4.05479374428229    2.35073268324522    0.56278031433739
H         3.61001173676822    2.43941444662311    2.28438963455479
H         1.88218460677269    1.34948038512248    1.22544996637390
H         2.43932948288059    0.14964914503356    3.36270776646922
H         1.69353774630476   -2.07623463214596    1.72568673258896
H         0.76957654040525   -0.76029955392443    1.62838899228093
H         6.18067896428173    2.26983306087933    3.23605167967870
