36
 energy: -51.092481021352 gnorm: 0.133199494087 xtb: 6.4.1 (79825abcba525fcdf90b791dcacef51065a7a4e7)
C         1.57969902146033   -0.56444597152053   -0.57825638565375
C         2.93893217409492    0.07041420088387   -0.22569873582907
C         4.01018489957272   -1.03504659627817   -0.22239275582743
C         3.94334493241242   -1.85602865744673    1.06280028565948
C         3.78658522304447   -1.12029844108467    2.39561395021089
C         5.03276119199136   -0.27200483446870    2.69824656323327
C         5.18799190226154    0.95502836119651    1.77759193583224
C         3.90005494648546    1.70637054675140    1.38298112574203
C         2.70593847638933    0.76480348287202    1.13881935544534
C         2.60916934570313   -0.14733324050035    2.36501055108903
N         1.33683166776676   -0.77832519876970    2.70160835328653
N         6.28305241562299    1.75624343778147    2.32565854805848
C         7.48696894592680    1.92129067435811    1.72460529300650
N         7.82014966238296    1.23983262572568    0.62135871826930
S         9.31149521246209    1.82241805083195    0.14603320361059
N         9.31436211742799    3.07962599281384    1.24493730536904
N         8.23209596007591    3.06918482398598    2.00166203130938
H         0.70144396995819   -0.00061402488497   -0.24493308390824
H         1.52498108548264   -1.51684582980253   -0.03869972762264
H         1.50588903289042   -0.83890069447392   -1.63397232600368
H         3.27149932096147    0.82574057272120   -0.95145170834206
H         5.01383580414535   -0.59829437837744   -0.31346227800674
H         3.77369224727655   -1.71281937665290   -1.05503448427023
H         4.90698180495008   -2.37193294035695    1.17036120430046
H         3.20923308900095   -2.67129534788316    0.99018754141798
H         3.53108878124787   -1.88820356875411    3.14374499410536
H         5.89529740997117   -0.93899013894216    2.56906580779776
H         5.05833259564742    0.07764742518478    3.74132003393279
H         5.62461328436491    0.64399293702800    0.82082318655825
H         4.03501432692468    2.35727825783005    0.50772942086699
H         3.69965331294300    2.39572458299492    2.21866989657817
H         1.83166875321910    1.42381973197294    1.03549505942601
H         2.73420284215105    0.51397784833009    3.23211599461294
H         1.04955270849032   -1.39238815471899    1.93802222129121
H         0.55920136289369   -0.12608147680053    2.80773914686063
H         6.09623789110502    2.28913562224471    3.17297769552120
