36
 energy: -51.090646768821 gnorm: 0.118081697119 xtb: 6.4.1 (79825abcba525fcdf90b791dcacef51065a7a4e7)
C         1.93282228968501   -0.13485395345084   -1.07550508850523
C         3.19856759805592   -0.20638390322441   -0.19935925142114
C         3.53165265933204   -1.67647120576281    0.11294633126239
C         3.87023620289439   -2.02520954184824    1.55999270882007
C         3.53593625088735   -1.05900045722218    2.69882921412843
C         4.81689232457396   -0.38198970459875    3.21356337350687
C         5.48429221975129    0.41842984371404    2.07724561284191
C         4.49728212696618    1.38550025316252    1.39197162542689
C         3.15436053728907    0.71693083534808    1.04318171667304
C         2.53973815827224    0.01082757777963    2.25502341993194
N         1.17592974391142   -0.47185194781368    2.06178947334635
N         6.69247777457516    1.08348849517130    2.56659710297749
C         7.47205848010929    1.81871518423650    1.73616573140003
N         7.46401491972816    1.79497894899635    0.39753981521288
S         8.72507631701228    2.71180833758525   -0.20129211927968
N         9.27199618713266    3.17853821643028    1.30576200224155
N         8.53389460587934    2.58266281534249    2.22455464125457
H         1.05987563106640    0.42263952908532   -0.71842244874684
H         1.51288469114484   -1.12197496871582   -1.30006127240533
H         2.23749342903436    0.37337592387634   -1.99430178913441
H         4.02770762651510    0.16635394540202   -0.81695913381210
H         4.33022456242459   -2.06468689676619   -0.53353094211354
H         2.60839267834684   -2.22824367439721   -0.11450735648444
H         4.95682600434460   -2.15782114194309    1.64976705304948
H         3.35043889859457   -2.96247126434527    1.80535750724678
H         3.06147903108826   -1.62409411907070    3.51749665728616
H         5.51862627905183   -1.15384536409905    3.55610410077477
H         4.61660750292935    0.25286732868647    4.08977993755679
H         5.70444948099123   -0.25851175396807    1.24293835186543
H         5.00855977374457    1.70416263702836    0.47272739388479
H         4.21270811259380    2.25432479779800    2.00671313826474
H         2.58039910719473    1.60866900811798    0.75215370839411
H         2.46915063827907    0.80729885627501    3.00701317210969
H         1.17842449245946   -1.09254325686972    1.25098592150546
H         0.53028538392656    0.28260162583330    1.82654978784162
H         6.66819558350226    1.50220405029603    3.49445009161580
