36
 energy: -51.091087447376 gnorm: 0.127693719490 xtb: 6.4.1 (79825abcba525fcdf90b791dcacef51065a7a4e7)
C         1.47497688740396    0.35071288704913   -0.92709565476861
C         2.76625673477581    0.02945479821400   -0.14976132134218
C         2.95293484663749   -1.49854175608331   -0.15359427669293
C         4.14199938009857   -1.86305385077235    0.73153663185526
C         4.21525618793691   -1.11597634405331    2.06524327889132
C         5.34359820915601   -0.09440212623303    2.28289771495220
C         5.15698970185622    1.14767318036336    1.38861690932601
C         3.71300440871993    1.68301608717313    1.47422548960054
C         2.66158312342712    0.57160844994135    1.29712671085382
C         2.91267653351786   -0.41274587269429    2.44294570247532
N         1.86092165655721   -1.42206604149731    2.51627076518936
N         5.98556196622380    2.21761829172122    1.94554204800813
C         7.29888385936104    2.24668386076332    1.61048773328983
N         7.85143026639522    1.28784495199998    0.85691765842234
S         9.49066823165377    1.57498351972442    0.71584321203685
N         9.41864408899261    2.86474954691801    1.77390104038847
N         8.19742974429343    3.14308877768332    2.19247499425606
H         0.70729331041435   -0.03190906706719   -0.24547612174910
H         1.32885103357150   -0.08178995170664   -1.92347381887368
H         1.30965415330811    1.42432804603973   -1.05090329829298
H         3.70998277828679    0.38195654829866   -0.58903329601086
H         3.15749295757549   -1.79742244036182   -1.19050680951756
H         2.04927464190037   -1.98184264034069    0.24442009351373
H         5.04978728447342   -1.54510867325460    0.20129652210544
H         4.01658431365962   -2.92954322891919    0.96759604156232
H         4.45578003456706   -1.92827741255591    2.77020570552879
H         6.24912980163778   -0.70822673647826    2.18931536415669
H         5.31425784101588    0.17226064584429    3.35011042195995
H         5.47566199014160    1.01858198750202    0.34718946692890
H         3.57359839094071    2.47324705622004    0.72318527409763
H         3.49808609847917    2.08637018809011    2.47665309885297
H         1.64175348772376    0.93944879266646    1.48142770089242
H         3.06722061713827    0.16442227984607    3.36372287673448
H         0.92173093528514   -1.02489025827275    2.56954812816805
H         1.99807635943846   -2.00914785151436    3.33962855157443
H         5.54700515840316    2.92937266610948    2.52683122706344
