36
 energy: -51.086303102709 gnorm: 0.132840436952 xtb: 6.4.1 (79825abcba525fcdf90b791dcacef51065a7a4e7)
C         1.49305183469117    0.05259868103526   -0.93019053382042
C         2.76724552916957    0.04242647418547   -0.06348055123451
C         3.31042359293047   -1.39774590879445   -0.08580070505809
C         4.53606585254256   -1.48281446675481    0.82016001237066
C         4.11271646726837   -1.01304930997250    2.21384614836772
C         5.09873109294006    0.08618011595227    2.64234722742232
C         5.06235247483349    1.32286360607955    1.72223700687039
C         3.57766254082447    1.73916960038208    1.68482262180389
C         2.54275765780117    0.65102388663095    1.34278643232414
C         2.67995091324986   -0.49918109822683    2.34433989101225
N         1.67822492458166   -1.54816032239814    2.18161334431434
N         6.07672689641342    2.32428555603358    2.05341527572244
C         7.35817599132897    2.18067019730800    1.63486577095649
N         7.65148495654541    1.80531407209656    0.38361630017726
S         9.31139473891022    1.68604769635117    0.24245414981887
N         9.60144338487732    2.19736395451043    1.80533537757656
N         8.46858848636015    2.41321762840461    2.44883236126928
H         0.77744612496730   -0.72342009118737   -0.63685422275499
H         1.85414403236168   -0.25667644591566   -1.91768345828371
H         1.02345201719074    1.03205243895313   -1.05451205245678
H         3.53661823468082    0.67466913148834   -0.52842266333013
H         3.70105797806925   -1.53011851127641   -1.10376122795094
H         2.54408224132212   -2.09988199132027    0.27242112856175
H         5.41067900010419   -0.89908649249940    0.50292797646005
H         4.91827566190781   -2.51298645631290    0.85907007310670
H         4.21650778237002   -1.81202238544043    2.96586096952204
H         6.14537719810820   -0.21221790233802    2.49737674471019
H         5.03241441957259    0.36739120829161    3.70415483660489
H         5.38498862169111    0.94876695735687    0.74308152744908
H         3.56926099729469    2.55840490894549    0.95219483239624
H         3.32207219999827    2.20856315368214    2.64819633483303
H         1.47920822508768    0.91760542303094    1.42718380292188
H         2.59860514032753    0.02074065938622    3.30761655257710
H         0.76957100101096   -1.12720595095552    2.38114226673187
H         1.82967969847512   -2.22038181590694    2.93432461678864
H         6.12326025267866    2.56123095204336    3.04261450448679
