36
 energy: -51.095435880203 gnorm: 0.126587107794 xtb: 6.4.1 (79825abcba525fcdf90b791dcacef51065a7a4e7)
C         2.14776553371122    0.41221671456937   -1.08627458181762
C         3.22706456518935   -0.04480002266166   -0.08572055942692
C         3.17204152423693   -1.57858041468295    0.03313650093937
C         3.94623626620495   -2.09660654175270    1.24246344578315
C         3.65140449101726   -1.30113442952705    2.51626213547126
C         4.92732717511477   -0.56071599103822    2.94978825423262
C         5.50151003774938    0.39681679134177    1.88641767190324
C         4.41907734551928    1.43517223466825    1.52701285636514
C         3.07739781079880    0.73352606154509    1.24476072285026
C         2.61340149150394   -0.18910189670814    2.37540988051994
N         1.33029936008465   -0.77507949982275    2.00048156102142
N         6.64282113283901    1.08240138202230    2.49375854272948
C         7.37665577997062    1.87614348693809    1.67560156050249
N         7.59077662975425    1.54668205641092    0.39569729884085
S         8.81245277924615    2.58032008675506   -0.08237329013994
N         9.05590096611375    3.33547538419673    1.38685906454396
N         8.21693847128829    2.82118723774084    2.26759228383795
H         1.16716139982762    0.00945128677079   -0.80961892016216
H         2.42045911486772   -0.11521992922774   -2.00748558903516
H         2.22231864602701    1.49572007137387   -1.21186023045543
H         4.14604894685141    0.27515020448084   -0.59653925333415
H         3.51337476464690   -2.07810299208347   -0.88355869224415
H         2.10733063056590   -1.81391989077338    0.17314716510200
H         5.01596976422460   -2.00366870765408    1.01147561337884
H         3.67816443597121   -3.16003284095917    1.32065909336139
H         3.29759531132562   -2.00129422000726    3.29037587352865
H         5.68969774067771   -1.32892620517499    3.13463947929873
H         4.69696541876062   -0.01876716407546    3.87937837326634
H         5.98393867219570   -0.02865505570270    0.99814743576232
H         4.59767135451219    2.16095460157383    0.72121849753107
H         4.36071947113687    2.07858119345498    2.41940558753952
H         2.31857274562335    1.52944188054718    1.25008671996035
H         2.61026370955779    0.41910870044176    3.28914264254384
H         0.68181964243509   -0.00056182884559    1.85127456892580
H         0.96114305283381   -1.38421848295200    2.73128100379957
H         6.44091147677570    1.62968446623353    3.32834660268060
