36
 energy: -51.082660986995 gnorm: 0.127404313373 xtb: 6.4.1 (79825abcba525fcdf90b791dcacef51065a7a4e7)
C         0.96901328280586   -0.29178004339442   -0.12450746055458
C         2.50915280517732   -0.34247637590363   -0.10840749106542
C         3.05582661488626   -1.77993778910686   -0.04140515110617
C         3.32060000264720   -2.27904581170857    1.37668740736110
C         3.99960002435683   -1.21263175148441    2.23923296114680
C         5.43333348745339   -1.04366382136489    1.71008151372686
C         5.74082123518051    0.28698786355464    0.99444939631902
C         4.55604887400072    0.95211553164189    0.26442611207240
C         3.15245148996449    0.69538987006433    0.84415358075472
C         3.27797834973591    0.13369456133393    2.26318278484880
N         2.03524129424192   -0.12804033597039    2.98248213236243
N         6.25519908478077    1.28358270010474    1.93449955208743
C         7.31537370993281    2.08825414358315    1.67671234353759
N         8.32833554165418    1.73132241743407    0.87730285907656
S         9.43091541248405    2.98074079422941    0.99009921816974
N         8.57187569035839    3.84230350076290    2.13374720197366
N         7.42717263007507    3.25610287456124    2.43385567011070
H         0.65949398202664    0.72706720661253    0.13335084413378
H         0.56045628510601   -0.93191380373701    0.66573988833724
H         0.51231403126430   -0.58319268732741   -1.07414629410074
H         2.84817480308678   -0.00508546178681   -1.09788597543515
H         3.88508512653366   -1.93881810821989   -0.74386415535832
H         2.30844820551109   -2.43578359298408   -0.51032812179344
H         4.01634465346989   -3.09434411457718    1.13679022880850
H         2.39862248908618   -2.65631794318474    1.84195698688703
H         3.97316255327344   -1.62286535217595    3.26181118281057
H         5.75575312373455   -1.83495656412775    1.02056925581637
H         6.05306691568872   -1.14781618583655    2.61340627344286
H         6.57372842271262    0.07659080268403    0.31269696254911
H         4.54677729283357    0.62141653949744   -0.78367342699283
H         4.82300537253256    2.00747871033820    0.09504990991621
H         2.66144126759274    1.67932150823322    0.83350705344803
H         3.87250879336989    0.80176842709109    2.89961693720063
H         1.57055941300192   -0.87111276004159    2.45847791428640
H         1.30868964235766    0.58622721519116    2.92469745312550
H         5.58234056515327    1.79590896533460    2.50160333713820
