36
 energy: -51.096934538960 gnorm: 0.124767193656 xtb: 6.4.1 (79825abcba525fcdf90b791dcacef51065a7a4e7)
C         1.37367224019945    0.21338481306519   -0.91393099129447
C         2.69072712621250    0.07144206541432   -0.12648080872693
C         3.17832054398758   -1.38812733023835   -0.16580966638753
C         4.29529825038181   -1.68501905785451    0.83139462634830
C         4.13815044628049   -1.06038441804164    2.21970330453598
C         5.25706777216462   -0.03442689873045    2.46378997605662
C         5.08429577126481    1.15870451424641    1.50259317955929
C         3.63124114595691    1.67423515679464    1.54589245345770
C         2.53290026335141    0.61992449394658    1.31318231088461
C         2.78140974959369   -0.39203486380209    2.43527137104798
N         1.73971816731850   -1.40587548486237    2.30374958118395
N         6.05903658612238    2.21421001070571    1.78056555528917
C         7.40141356294473    2.17825226797372    1.59441586325313
N         7.96411999425337    1.03918587688089    1.17199818751963
S         9.54877652128989    1.40991863207899    0.79666821701800
N         9.47497146701845    2.94508780804178    1.44933863024115
N         8.24764396795654    3.26659504510447    1.81586512331439
H         1.02921359587349    1.24476586014180   -1.04788696277622
H         0.53776495290029   -0.32435378049247   -0.45211160976798
H         1.36525024637580   -0.17148267375865   -1.93721763007214
H         3.30672856908348    0.76186218868003   -0.71952254228672
H         3.65520133258536   -1.56365035153520   -1.13953328544048
H         2.30983013704930   -2.00938397567693    0.09565077439997
H         5.28058920577522   -1.43510802239537    0.41537922678236
H         4.31346329430956   -2.77298996793762    0.98900784943452
H         4.18662809615340   -1.80780249248387    3.02820372681225
H         6.27522238192163   -0.40785388210055    2.29221119368188
H         5.30452171681630    0.29751213190738    3.51187273970492
H         5.29627611394496    0.76946907959946    0.49942428977940
H         3.57300470916710    2.53671397137457    0.86714415167853
H         3.47540427772749    2.03496910343341    2.57513073208415
H         1.52007120121604    1.04008643305834    1.39665159189399
H         2.76195498041971    0.13095293138457    3.40012517772150
H         0.87805800880840   -0.99867078923415    2.67034528438829
H         1.97139761078056   -2.25247481110510    2.82431536391529
H         5.78601075990370    2.97922785514420    2.39459168485296
