36
 energy: -51.091939595552 gnorm: 0.128727956014 xtb: 6.4.1 (79825abcba525fcdf90b791dcacef51065a7a4e7)
C         2.69364916892171    0.45234249166232   -1.38344185183465
C         3.40712133977915   -0.14855619088197   -0.15676450605316
C         3.03906912175154   -1.61843635278169    0.11457800638941
C         3.72782298471514   -2.18265617168814    1.35452734984510
C         3.64356108338579   -1.23226287067981    2.55115482256407
C         4.95795626012329   -0.60652360005485    3.04608790989172
C         5.51876227316057    0.27919191074005    1.91546124145460
C         4.43779400187671    1.30715500386386    1.52327011114951
C         3.08868863014486    0.69486326669235    1.10244809563267
C         2.62729645519383   -0.11593638659883    2.31678894124836
N         1.26747322560219   -0.64346251846182    2.26303904598088
N         6.69011738239156    0.94064081123602    2.49156254752195
C         7.39851660005087    1.79231153656923    1.71005878250626
N         7.17044861788261    1.98429188699884    0.40480938513140
S         8.39555615551947    2.98618726982048   -0.12882797456373
N         9.15118193728455    3.15722938697511    1.35034223960408
N         8.56466412558424    2.36126864631356    2.22583336577973
H         1.62793896623958    0.23158804462775   -1.50942618850484
H         3.01793615071740   -0.14368617651803   -2.24412106421778
H         2.92916869950046    1.51508238798790   -1.48553942179121
H         4.47578188433639   -0.00409681848629   -0.36873698682664
H         3.26827416847100   -2.21298452640636   -0.78003856138291
H         1.95874728907836   -1.73356379997250    0.28264752906106
H         4.79335112778844   -2.38731992514976    1.18398376304138
H         3.31794562746698   -3.15834573693955    1.65265987351212
H         3.22905674196683   -1.85722135375294    3.35878705453176
H         5.70066064489739   -1.38848425742806    3.25213042815217
H         4.79789009719699    0.00334250254915    3.94794988690025
H         5.87477444543221   -0.31854754054816    1.06766965544873
H         4.91687353227874    1.93416958884692    0.75822373606745
H         4.46873144013070    1.91740241178817    2.43999608124381
H         2.30972292590113    1.39496110212898    0.76718504821758
H         2.79215458323921    0.58974689970974    3.14121023440774
H         0.57415369840216    0.06332936417011    2.01319998283382
H         0.98155919243470   -1.00628179728134    3.17298950911510
H         6.74994099860563    1.09548935767180    3.49618513544275
