36
 energy: -51.095279076864 gnorm: 0.129914537773 xtb: 6.4.1 (79825abcba525fcdf90b791dcacef51065a7a4e7)
C         2.51428683448436    0.31312948902489   -1.30391849770700
C         3.29053204041699   -0.25325223723691   -0.09913045564857
C         3.06133142400667   -1.74024607400999    0.22637427443777
C         3.84657029710565   -2.05386874649711    1.49729560614075
C         3.59334295104810   -1.14058964248745    2.69898693049173
C         4.91264502094904   -0.51307578661307    3.17837353486239
C         5.45323728819365    0.36636614032544    2.03309893955602
C         4.38355656939290    1.31865276414511    1.46043171218615
C         3.03710324343076    0.64439171896032    1.13714676301572
C         2.52371430366818   -0.09960026027309    2.37319299430512
N         1.22031104027037   -0.71455950839052    2.14241782320268
N         6.64469559448851    1.13616497780604    2.39270565267653
C         7.47277573779177    1.83997336834339    1.58223811917216
N         7.19710050259780    2.23648497123179    0.33350709998415
S         8.57321489786662    3.00622252982276   -0.21718785293198
N         9.37855415842263    2.89299195748262    1.24115976165521
N         8.69660490669463    2.21063295653155    2.14303157813766
H         2.72572734413558    1.38058857746649   -1.43106735152772
H         1.43359212814099    0.15200089868339   -1.21837635082840
H         2.68709465173478   -0.18156944530321   -2.26345999218598
H         4.32179227349192   -0.21364451698754   -0.47697934270949
H         3.41521001528876   -2.38027935253506   -0.59306983344922
H         2.00232154445487   -1.97345709389465    0.40722687061340
H         4.90669971422052   -2.20506520124521    1.25318936853412
H         3.44843836254196   -3.05016047119308    1.73760033496061
H         3.18849515910476   -1.79126499949017    3.49105803472522
H         5.75089264743865   -1.21493682697381    3.27965432722499
H         4.75733216018952    0.12378680503602    4.06222693139435
H         5.77365042185876   -0.24382834956168    1.17999530270344
H         4.71651006480840    1.78368807216150    0.52189850698627
H         4.24774549705895    2.03499802630385    2.28635565404392
H         2.34876335181570    1.47605471978793    0.92774110178176
H         2.47686851085443    0.60800208278136    3.21101277548778
H         0.62668880579854    0.01869297566056    1.75175206066946
H         0.80564660052008   -0.98813895935484    3.03382244625004
H         7.05435814314257    0.99112893546418    3.31355560212548
