36
 energy: -51.091710562871 gnorm: 0.122308791813 xtb: 6.4.1 (79825abcba525fcdf90b791dcacef51065a7a4e7)
C         1.99192391779707   -0.11218957966414   -1.15737533669904
C         3.17367575201484   -0.24330725438856   -0.17700304681718
C         3.46587861472541   -1.68395963570918    0.27991606332456
C         3.81720046319858   -2.09816859100652    1.70652187848948
C         3.53548496001275   -1.02885399345908    2.76457078244084
C         4.81550326007334   -0.26808210971135    3.14787533912595
C         5.42354976840121    0.49987699763829    1.95714856017798
C         4.39385971359429    1.44484861738260    1.30462925376095
C         3.07462947432618    0.69041511540944    1.05455065163940
C         2.48728257342406   -0.03402886270574    2.26909050135925
N         1.18554976505370   -0.66555692600690    2.07685082340891
N         6.52152823804334    1.34283274157404    2.43185801044973
C         7.49893831294722    1.88256713432646    1.66291265937049
N         7.58265459361391    1.82871201467933    0.32775773449312
S         8.93426420764290    2.65002839334515   -0.20893820054471
N         9.36644491025696    3.07064986464001    1.34813201984943
N         8.53861134596161    2.59695011325538    2.26155497728302
H         1.23488155136782   -0.86981896627116   -0.92666472407976
H         2.32913318651036   -0.20776429065860   -2.19580506689108
H         1.55762029318326    0.87385464156917   -0.97188515259267
H         4.02337527790465    0.22195648842706   -0.69601804870234
H         4.29694870007079   -1.92038066951116   -0.39816129374006
H         2.62272733338222   -2.32443938230024   -0.01585169273415
H         4.83952814961543   -2.47829376069420    1.83564795696488
H         3.14867747825121   -2.92651559470371    1.98178692546654
H         3.08585363484142   -1.57026899986372    3.61272067503074
H         5.49458131567860   -1.01282061353554    3.58347073605914
H         4.50016735815676    0.49170641111995    3.87876353065157
H         5.86588524813111   -0.19845290478856    1.23641117678964
H         4.73963117608686    1.74160633438145    0.30446056984412
H         4.19628124074863    2.34811260061248    1.90364715683863
H         2.32912914171506    1.46022048440693    0.80766034617196
H         2.34366221245540    0.67107656457085    3.09796751318544
H         1.18462453579288   -1.34365441752566    1.31340519489168
H         0.51600176211766    0.07812924834852    1.87677369332807
H         6.51806005373575    1.60272424636578    3.41637203941093
