36
 energy: -51.090659044814 gnorm: 0.120698450764 xtb: 6.4.1 (79825abcba525fcdf90b791dcacef51065a7a4e7)
C         1.79261230935912    0.21751375307028   -1.10716776005028
C         3.05017579609522   -0.13047393751054   -0.28723010315588
C         3.00716802746611   -1.64982207939917   -0.04357360035291
C         3.91214488371283   -2.12973369217742    1.08819582958894
C         3.78112409952309   -1.28073158647163    2.35480304360684
C         5.09082045503336   -0.63136388783333    2.83141626915399
C         5.49328755226254    0.48605258626664    1.84820080030136
C         4.31933789862343    1.39512733992564    1.43054098873055
C         3.04139329198970    0.61459064771883    1.07040527649998
C         2.67989169597563   -0.22328056019743    2.30011703168569
N         1.29751733618332   -0.69051383959711    2.33215324316714
N         6.48571482441214    1.38406094135014    2.43993490306840
C         7.55005711721543    1.90445355320461    1.78092989957839
N         7.89349691610839    1.56095119135621    0.53329106528658
S         9.01283281770079    2.71031048451865    0.06905834153045
N         9.12335131250007    3.46422676579071    1.55484639928650
N         8.28881172374969    2.90656907725816    2.41310214867911
H         0.87705191790335    0.22360226529054   -0.50545775701562
H         1.71180721991282   -0.47919626864022   -1.94933556774750
H         1.90968339455708    1.21840908155592   -1.53121064087227
H         3.85301668832773    0.14371557073318   -0.98587367198698
H         3.27947494335539   -2.21981657733043   -0.94208154369952
H         1.98974235577929   -1.92270638207120    0.27103112703592
H         4.93045017662692   -2.21735085529209    0.68607623229051
H         3.47620908977912   -3.11713080134421    1.29762250850127
H         3.53931064785205   -2.03098627787933    3.12506335728094
H         5.83583913893163   -1.43390887185067    2.91138192399804
H         4.84349076125511   -0.24364063543282    3.83112201314816
H         5.94668121782537    0.02175349270255    0.96409207512491
H         4.71856668647461    1.93793297191997    0.56224445546198
H         4.16043378403115    2.07862089886387    2.27985340129888
H         2.24267473941114    1.36926087336103    1.02742363772549
H         2.84495253809742    0.39357889226501    3.19290868301316
H         0.53993448702695   -0.02282221428324    2.18075173250669
H         1.15182497350392   -0.98091453782223    3.29953925114058
H         6.59625295548336    1.28525135247552    3.44732830641806
