36
 energy: -51.083269397777 gnorm: 0.123353317844 xtb: 6.4.1 (79825abcba525fcdf90b791dcacef51065a7a4e7)
C         0.96080693809857   -0.83789850276144   -0.12380685752916
C         2.46188016105875   -0.55034028201903   -0.32116063304691
C         3.32774432016708   -1.78231069371854   -0.00152796315281
C         3.49054532336565   -2.16509095388301    1.46720460884574
C         3.88953426518244   -0.94834190168367    2.30541363488105
C         5.33149851686696   -0.58491439055043    1.91451389241715
C         5.50837434591164    0.64920652175692    1.00733558460261
C         4.31689511002946    1.07120878978043    0.12342061267672
C         2.93441818261272    0.59533704594013    0.60754997631132
C         3.06032112733689    0.31955212925505    2.10854751273683
N         1.80704101491795    0.20110628975901    2.84716218039184
N         6.07211925529159    1.71216485564816    1.84027700742236
C         7.40354487122095    1.95949565298983    1.77660633342344
N         8.19941966852582    1.78070500706052    0.71492620585978
S         9.51230417488244    2.79533016733544    0.90550882067547
N         9.09473945966861    3.28680325709480    2.44572444373917
N         7.96850010368901    2.70379716489076    2.81414021079565
H         0.50262788924479    0.15729608981206   -0.12538882721922
H         0.71812019510951   -1.39093649272901    0.79076027781947
H         0.57145392137362   -1.54344588509728   -0.86266852763575
H         2.72851000369685   -0.22423845389017   -1.33624798098126
H         4.29703290104570   -1.53573916559416   -0.45544802224105
H         3.03705155980625   -2.68824295289679   -0.55232866403740
H         4.17259287134978   -3.02234498238407    1.54625687444146
H         2.54608252326036   -2.56034134873039    1.86797851628602
H         3.83390014935097   -1.24949302697605    3.36412493136833
H         5.83885946974824   -1.38506980030309    1.35966078103543
H         5.93204779989167   -0.48604710926794    2.83129013483813
H         6.26660896300498    0.37822580543422    0.26273004017373
H         4.53027575200074    0.61910390672295   -0.85536961613660
H         4.28464010128526    2.15796687354580   -0.05451754152799
H         2.17491831480972    1.36626678081726    0.41222164937626
H         3.57688847084914    1.12966261134036    2.63931746905175
H         1.19971587136033   -0.45782252182428    2.35763660958171
H         1.38347072592101    1.12873096603180    2.80849459223300
H         5.76352591994642    1.76088044522223    2.80941087272177
