36
 energy: -51.095002137388 gnorm: 0.118722133435 xtb: 6.4.1 (79825abcba525fcdf90b791dcacef51065a7a4e7)
C         1.47268090511602   -0.29615986773398   -0.65742730496820
C         2.81198596129698    0.10965209851062   -0.01210741331994
C         3.73320691960248   -1.10272963988523   -0.23820350242431
C         3.71653185391458   -2.04126967118229    0.96556760990537
C         3.81340061805057   -1.33534661921188    2.32002469099431
C         5.12976609296440   -0.56728541081890    2.52351195771366
C         5.26649464626459    0.72556497549041    1.69456369577578
C         3.99262381523048    1.59398571556021    1.74053077369295
C         2.78087090056356    0.69913047105775    1.41964653187923
C         2.63191228875721   -0.38248177752510    2.49334523405153
N         1.34834746849175   -1.07727904104805    2.49655173707102
N         6.39437184915125    1.49423150002633    2.22231832614194
C         7.50912713116628    1.85603332103332    1.54089283827634
N         7.72519502207502    2.09245194113642    0.24090501823768
S         9.20997212531234    2.83698391475371    0.06608867738700
N         9.55477722705107    2.84481729553658    1.69986293675272
N         8.56976428179257    2.25802159483086    2.35519617911749
H         1.51933944887008   -0.16968466996382   -1.74470364561632
H         0.67562492848377    0.37747798052037   -0.32262174964910
H         1.32642586612106   -1.36950651773958   -0.50962371387296
H         3.12804168362557    0.95379432157004   -0.64089110930233
H         4.76858363019294   -0.83946734379019   -0.49325124715179
H         3.36801496862387   -1.67883454879732   -1.10037225599395
H         4.55657231018324   -2.74498151536616    0.89178213739783
H         2.82415194921903   -2.67492334096755    0.86071655304138
H         3.68230361154877   -2.11068808915340    3.09223968410867
H         6.02521181045844   -1.11179276582188    2.19607566877549
H         5.15716597608705   -0.35425331277923    3.60276144821033
H         5.59449178725023    0.49399019711390    0.67398605581826
H         4.09994637711756    2.37562139966170    0.97535890397723
H         3.87752052875148    2.20507847185892    2.64996049833356
H         1.93105699062282    1.39315492576773    1.49362150559333
H         2.69928010255805    0.07821715701040    3.48735513756639
H         1.36837461297503   -1.54462526438427    1.58888840270358
H         0.59299933147950   -0.39698123941754    2.58621007124669
H         6.48920998008886    1.59186498547898    3.23142531690200
