36
 energy: -51.090902086196 gnorm: 0.116080404273 xtb: 6.4.1 (79825abcba525fcdf90b791dcacef51065a7a4e7)
C         2.08377301240664    0.20621957287253   -1.11200737344807
C         3.25852880500444   -0.02759644695461   -0.14240024335919
C         3.36312456991442   -1.55263866693022    0.03910137794055
C         4.03170068686853   -2.02716196231887    1.32674802207515
C         3.72037318375000   -1.20579181633030    2.58002016887636
C         4.95100971165873   -0.35302601300924    2.92997342282839
C         5.31818992164957    0.74106273260079    1.90749579624975
C         4.10240449528847    1.63724393390433    1.59486272895991
C         2.94517206407050    0.70763819974988    1.18410256722691
C         2.54126055516740   -0.28156116078008    2.28102672796264
N         1.33478128290102   -1.02668770955722    1.93535885056558
N         6.41174173790627    1.48655518738669    2.53188795532328
C         7.46595060443328    1.87594750257544    1.77364137029550
N         7.27674520754681    2.25322697816734    0.50304743143143
S         8.74135403918129    2.77690199492601   -0.10534151567859
N         9.57754470389500    2.41075546142205    1.29283305758928
N         8.78897436268123    1.89743055472185    2.21949141473239
H         1.32728530873472   -0.55932553352655   -0.90704428363074
H         2.38546469823860    0.14247484521376   -2.16372010072204
H         1.64935117088411    1.20510877232050   -1.01815917034506
H         4.12594052747662    0.37830218378569   -0.68154716543259
H         4.03680185283742   -1.90216580451114   -0.75484508913103
H         2.33180393105224   -1.93337853491296    0.03565922284939
H         5.10345865170691   -1.83978990631174    1.17658419027470
H         3.89695593330417   -3.11740068886077    1.37231054669983
H         3.43228042445681   -1.87358261574038    3.40809913122771
H         5.89796235387682   -0.86771771765055    3.13949412182853
H         4.64356176111752    0.25570479354888    3.79359106766815
H         5.73446476073870    0.32248900087131    0.98321284373899
H         4.26199255946661    2.37359194342894    0.79468544568857
H         3.83333999685541    2.11797494884320    2.54893165165551
H         2.08410376894847    1.35741076060735    0.97036704739884
H         2.34576338576409    0.29988240609870    3.19126944568504
H         0.50997539281842   -0.42677450370804    1.88570322824021
H         1.18659077138225   -1.63611502772035    2.74036346532914
H         6.59229660575159    1.34279540379987    3.52363214725910
