36
 energy: -51.088959207423 gnorm: 0.120840321945 xtb: 6.4.1 (79825abcba525fcdf90b791dcacef51065a7a4e7)
C         1.25983200472070    0.21576728973981   -0.80004958668341
C         2.64999642353510   -0.01805566615410   -0.17745114907539
C         2.92277798336199   -1.52973370169534   -0.07716827733530
C         4.14391436278938   -1.77547585484176    0.80523584108051
C         4.05111334066461   -1.20928438568667    2.22406635529409
C         5.22149433797927   -0.24721960009255    2.48633104912555
C         5.21260694866690    0.98420807985280    1.55852779326537
C         3.82379706179569    1.63241649856555    1.38518608822870
C         2.68347500475308    0.60756378235438    1.23882977818765
C         2.77322369360154   -0.39014565034564    2.39702820768110
N         1.60282387315030   -1.25977335915840    2.33218973499249
N         6.17416610924809    1.98239830187007    2.02810251162367
C         7.47363113302617    2.04225385048524    1.64635837000997
N         8.07284277342590    1.35311203273636    0.66728920575841
S         9.63468535674055    1.93632081273982    0.56745466338195
N         9.51782707584423    3.02929613782671    1.82440308501754
N         8.28831379777571    2.96720485652711    2.30240217851974
H         0.67276725872472   -0.57612698402907   -0.32192693405257
H         1.28310938204050    0.13170705389121   -1.89255723829459
H         0.92490140227585    1.23179465790963   -0.57461814204671
H         3.51753799526929    0.38007579078324   -0.72215214918457
H         3.21253704393048   -1.79256855621406   -1.10348149965862
H         2.08045430631825   -2.15918353015452    0.24358193313853
H         5.03983874208564   -1.40817177886099    0.28684426596005
H         4.16750179920367   -2.86989948424644    0.90786695658023
H         4.00680733114998   -2.00050178123244    2.99000942972178
H         6.23998425991631   -0.65326709616576    2.42862920966476
H         4.97999603505364    0.10543663465128    3.50034536235905
H         5.54102290697893    0.62168462985449    0.57694365926927
H         3.94609793437378    2.28206195313582    0.50714069077999
H         3.58540825832353    2.33125715166371    2.20282784703237
H         1.69924705516085    1.09528183517318    1.29129240248551
H         2.80977658189043    0.19103935898206    3.32747189351073
H         0.72070515409182   -0.76640597057569    2.47752204744576
H         1.61713075840408   -2.14257377525782    2.84390571967660
H         5.94242975279893    2.91853130122592    2.35486965061911
