36
 energy: -51.090692700112 gnorm: 0.130384999523 xtb: 6.4.1 (79825abcba525fcdf90b791dcacef51065a7a4e7)
C         2.23060028644908    0.57810575747684   -1.15721294512984
C         3.10165147023270   -0.00767093829315   -0.02894232721578
C         3.13290420397727   -1.54647036832477   -0.00143815798590
C         3.91508203518086   -2.02971615582210    1.21711492872064
C         3.76211173794683   -1.22135035168626    2.50762244427803
C         5.02694397442213   -0.40456825995366    2.81940687283335
C         5.25951357077729    0.70165887191603    1.77084360098464
C         3.92133399990937    1.46548432853078    1.84056101915653
C         2.72448694526167    0.64545076687224    1.32366667998800
C         2.50083224084101   -0.36087633009474    2.45600359856966
N         1.41925873871980   -1.29954813749664    2.17424817535412
N         6.38193987079721    1.49738552453819    2.26929965071567
C         7.42561047543890    1.97887570564165    1.55038417709916
N         7.71539033813346    1.71131461724524    0.27093659189613
S         9.21406409409588    2.37121021509574   -0.05764586982835
N         9.32722550065856    3.09549227422416    1.44261418956880
N         8.31559087824497    2.80460552488687    2.24012384403264
H         1.18852918047616    0.24009127038591   -1.14391496256154
H         2.59317053027014    0.20051845966161   -2.12010005086544
H         2.38281236211891    1.65935048049644   -1.21244688027043
H         4.11822289452577    0.32621204332676   -0.27982259413111
H         3.57955085538382   -1.92232205922850   -0.93181634392965
H         2.11332856917138   -1.95649191058303   -0.03217601498675
H         4.99222104703427   -2.06123656084828    1.00474587861210
H         3.73166971716597   -3.07989093364596    1.48608601479316
H         3.75290499131470   -1.95045845703986    3.33404448770103
H         5.88344719574845   -1.08683381707007    2.89966732097392
H         4.99240245400975    0.01070830868347    3.83786901139433
H         5.48786296766202    0.33150645597941    0.76405095655313
H         3.99668124314984    2.33670654018484    1.17478695743400
H         3.70892851325666    1.85846738872797    2.84763288833018
H         1.92684952446669    1.39168215743063    1.19623381565020
H         2.35027139025693    0.29095056578226    3.32622811413791
H         0.60440315930174   -0.76147638157801    1.87565904439010
H         1.15526429601699   -1.88664342157671    2.96609448324836
H         6.18160370188304    1.95556424607414    3.15629523025023
