36
 energy: -51.086106394165 gnorm: 0.136625963296 xtb: 6.4.1 (79825abcba525fcdf90b791dcacef51065a7a4e7)
C         1.22182293203581    0.25144484262038   -0.84754380234929
C         2.59427064683029    0.04925845527544   -0.17644987423999
C         3.03568920223349   -1.42543605056130   -0.18436942540114
C         4.27233961816146   -1.75625854583305    0.64716682956135
C         4.25857910362961   -1.06695990613537    2.01352802186965
C         5.41510535745055   -0.07549019048870    2.22228138180992
C         5.06024967259552    1.19649154792974    1.42638444761180
C         3.63221201511706    1.76639220183558    1.54859793683429
C         2.63216930626332    0.63168567347158    1.25802370413076
C         2.92234659394720   -0.40553130053136    2.34654595443866
N         1.89067907077347   -1.42872896127432    2.48446194310432
N         6.00911138790032    2.27955769289155    1.68736212585237
C         7.35047674158868    2.09320880462430    1.62464285267972
N         7.91759188341053    1.04917190366744    1.00745987646988
S         9.53129325727052    1.47664528208393    0.95563265104340
N         9.43998781233642    2.95472296685417    1.72707281444790
N         8.16938534519917    3.14892338608517    2.03021787153353
H         0.55958975366901   -0.58809520856191   -0.60887551551113
H         1.33989983111727    0.28856668640264   -1.93651613883888
H         0.77362147858993    1.20930550363072   -0.57018505545424
H         3.20327304094249    0.66914856995185   -0.84927122050783
H         3.22018116503607   -1.93394514455827   -1.14026823141809
H         2.19722417609643   -1.94586522598494    0.30011674811946
H         5.16378714623497   -1.36289993099798    0.14030104711270
H         4.42434277963533   -2.84147765485401    0.73687260686927
H         4.45780027461873   -1.88568550304839    2.72391955508385
H         6.42061662495537   -0.45308183828076    1.99447128582377
H         5.43034211823130    0.14669978563439    3.29992340910748
H         5.18831625891212    0.82453187710388    0.40264977914421
H         3.63992236249570    2.64967912592756    0.89460617977554
H         3.57309200591708    2.05856620639216    2.60920376577770
H         1.62954850781167    1.01746310777857    1.49308372492780
H         2.98274281839216    0.11098377757045    3.31319070579669
H         1.01776682900099   -0.91849844915283    2.62713411207712
H         2.11666655520357   -1.78037703319890    3.41541189539506
H         5.74130104515075    2.73811259961268    2.55617080693429
