36
 energy: -51.094636222131 gnorm: 0.123580309670 xtb: 6.4.1 (79825abcba525fcdf90b791dcacef51065a7a4e7)
C         2.05281703918622    0.25926903510917   -1.28300135139620
C         3.12060374066080   -0.06113911418632   -0.21903272528979
C         3.29988229244713   -1.57087081182453    0.02222706339574
C         4.25781509237522   -1.83671878897493    1.18062677060471
C         3.76167525537013   -1.15706169535216    2.45897582952514
C         4.93338051060289   -0.34574590405777    3.03605171006253
C         5.29323716430910    0.73644255706419    1.99841819651826
C         4.04973899018088    1.56413527278519    1.61416383428469
C         2.88565425712058    0.68710167955287    1.11637229488399
C         2.54716129883619   -0.24752716495940    2.28118727052058
N         1.37050496035570   -1.09238411917695    2.10233350199193
N         6.37810973750258    1.55343559045834    2.54344480641362
C         7.36309769073058    2.01395647161140    1.73372890229769
N         7.51211983320224    1.61311470797777    0.46500287787174
S         8.97109657008216    2.25373913720298   -0.03543582249823
N         9.33522704831352    3.00234225813851    1.41203528695895
N         8.38055512865714    2.78566266097298    2.29842844778225
H         1.04878950902462    0.46723845136382   -0.89696993822703
H         1.98453018770748   -0.59276265890456   -1.96897497941984
H         2.39803197755777    1.09998993233759   -1.89072206819424
H         4.13027721243392    0.26370612359543   -0.50690639670856
H         3.69246349679899   -1.97950394180857   -0.91865563676818
H         2.36098448869741   -1.99485400183865    0.40603186676602
H         5.27458746496796   -1.54602222343932    0.88399224603440
H         4.19259837954240   -2.92575043149911    1.31704322764081
H         3.56855506974182   -1.90065251292946    3.24918723533626
H         5.73431645794552   -1.09364876757424    3.10437965159183
H         4.72892088949835    0.13595742676259    4.00407600046731
H         5.79483544149029    0.26260714032048    1.14597062492844
H         4.33535773817206    2.30613317093687    0.85533482294349
H         3.62615951454010    2.11841754317975    2.46686372483233
H         2.08214907797107    1.37135094502095    0.80732823683972
H         2.41815787122367    0.44109812584444    3.12616708513686
H         0.51266318245353   -0.54141581033535    2.15897003140973
H         1.30688199095652   -1.89435268753339    2.73018144368509
H         6.44446587815366    1.92581909976051    3.48882878063600
