36
 energy: -51.090085017074 gnorm: 0.124436135702 xtb: 6.4.1 (79825abcba525fcdf90b791dcacef51065a7a4e7)
C         1.85836019686638    0.14335406424108   -1.11202771095227
C         3.11498766934024   -0.10601354047015   -0.25554519237396
C         3.28549284427586   -1.62268425695782   -0.05485925150359
C         4.10424006895705   -2.02058654240719    1.17050887616433
C         3.80758099528253   -1.21767847665918    2.43920776783113
C         5.01854791657028   -0.42240827538593    2.95422964897467
C         5.27699337978910    0.67817780811983    1.90578879496547
C         4.05747591075129    1.53392558433046    1.50643016839094
C         2.88032127283597    0.63513991939224    1.08385595063082
C         2.61456242972052   -0.27585003586902    2.28567627962213
N         1.28625983575170   -0.87516388647738    2.20365645562226
N         6.34710131213887    1.56415295052998    2.36556832487474
C         7.47111959212066    1.94764316445350    1.71178031058448
N         7.55447272399076    1.92185261514478    0.37576588046880
S         9.02597254703024    2.62283481045356    0.01139806696271
N         9.52545201494915    2.77236646572733    1.59769274241564
N         8.57209678184631    2.40888959066055    2.43616738221645
H         0.96496257105021   -0.27611435036738   -0.63639154888025
H         2.02624349982637   -0.36961544318842   -2.06589269811351
H         1.55722746093272    1.19366236496209   -1.15051158162808
H         4.04062986943900    0.31347733126770   -0.67393513851808
H         3.81440715783038   -2.02587417811301   -0.92895812506093
H         2.27756647180449   -2.05800288062506    0.00152418245694
H         5.16305892148857   -2.09135397832747    0.88728244695560
H         3.81795132486823   -3.05568885792986    1.40599676984033
H         3.53989717786851   -1.95139867391502    3.21680460446322
H         5.86375043778375   -1.11092771125979    3.08499462340645
H         4.72739477086531    0.00621654615174    3.92501463303810
H         5.62001853353442    0.34912355353523    0.91743422420054
H         4.41562150097569    2.15632685315001    0.67437917879392
H         3.91916780222155    2.29098356889374    2.29476994842025
H         2.06070670490766    1.36644856850039    1.03145829420183
H         2.58823853021069    0.42796000962565    3.12757654955915
H         0.62264857215052   -0.11905404440028    2.02877278551203
H         1.10415274074119   -1.37500042762151    3.07451520122916
H         6.21598217288032    1.84734716890341    3.33481148109858
