36
 energy: -51.085397421365 gnorm: 0.137457555351 xtb: 6.4.1 (79825abcba525fcdf90b791dcacef51065a7a4e7)
C         1.91443673888539    0.23346705222316   -1.24601036478047
C         2.99336243926379   -0.19668326082862   -0.23321754750120
C         2.80571807151425   -1.68556539369466    0.10979364726463
C         3.71178008624965   -2.25238008112111    1.19973547107005
C         3.77044100836084   -1.29242929922698    2.39024730929310
C         5.18154492311823   -0.75237092527972    2.67531919207913
C         5.56699757227868    0.42699955944620    1.75999211642457
C         4.43665303750256    1.32025269696303    1.20914313101815
C         3.05277869685172    0.66229472056404    1.05402716836356
C         2.79546271613711   -0.11708430689687    2.34679923471830
N         1.40937738583445   -0.55887239155506    2.46462545669472
N         6.54287289879331    1.19855894490147    2.53060465562839
C         7.46763291944392    1.87306337312421    1.80411771453605
N         7.91614714034641    1.57080076966644    0.57936478935484
S         9.05374269768442    2.71320638204617    0.14320264388697
N         8.83986068559580    3.67867662457947    1.48867354360313
N         8.05501451015900    3.02676881078103    2.32716864084210
H         0.90694333598112   -0.10888960488225   -0.98506626352530
H         2.14844541334562   -0.15262417316677   -2.24468672433322
H         1.83799791629136    1.32179688672066   -1.31675476771892
H         4.00501107983176   -0.18208174329530   -0.66239132209321
H         2.93555693322741   -2.20431197582697   -0.84958386730457
H         1.78610805259681   -1.74857765625172    0.51602250595186
H         4.66987325201452   -2.54075874056080    0.74672563406394
H         3.25081527466858   -3.21592988022648    1.46038060881767
H         3.57973676333306   -1.91396185514462    3.28018329417995
H         5.97976785857987   -1.50236718231253    2.75194568471098
H         5.13340432001886   -0.26560106241422    3.66104253695183
H         6.10197944425611   -0.05805964768019    0.93458329810231
H         4.82705975208682    1.64594908526584    0.23473820304033
H         4.42804911179087    2.05960397476375    2.02586294308135
H         2.39070567547119    1.52141840473035    0.87266617545954
H         3.08466301718118    0.48253726439976    3.21952762863928
H         0.74287611022085    0.21195135768322    2.39925630731636
H         1.22400099364123   -1.05195804033956    3.33863728765800
H         6.29034732360086    1.72383107489876    3.36555586408037
