36
 energy: -51.087211417719 gnorm: 0.134859244329 xtb: 6.4.1 (79825abcba525fcdf90b791dcacef51065a7a4e7)
C         1.73028270251463    0.18913242640660   -0.97312943417357
C         2.98512972945557    0.06950318270887   -0.08661553809667
C         3.33056803399260   -1.43054568037507   -0.09937105769838
C         4.31660091674709   -1.77758756008828    1.01305933307994
C         4.03861512702494   -1.12774933145024    2.37051983374251
C         5.06228035086581   -0.05825131716938    2.78576266725992
C         5.07856584337710    1.10058455668459    1.76883286653113
C         3.71441922443260    1.79359897325623    1.57428357347988
C         2.69392368571848    0.67059066930792    1.31061925098926
C         2.66277651838091   -0.46448675302439    2.33800994514202
N         1.56141869328143   -1.39042164388589    2.09316789259519
N         6.17450352016992    1.95795464200343    2.22195239562137
C         7.34532729680259    2.05075463221656    1.54484053468169
N         7.64499674952273    1.76903744417929    0.27072079839375
S         9.30121654319413    1.97457034835959    0.20634770371917
N         9.54700158662919    2.45587760552860    1.78625380554211
N         8.36943910332796    2.49669004925530    2.38267840797816
H         0.79024104556918   -0.18021994964788   -0.54857869626799
H         1.88816610332728   -0.54352545525536   -1.77279573434064
H         1.59294819679044    1.21649047884370   -1.32095715560568
H         3.82075679495251    0.59608669016215   -0.56856308083719
H         3.57953128567262   -1.78404118898891   -1.10903413076225
H         2.38232551869252   -1.92861812860282    0.14833226736515
H         5.29570090508235   -1.42174391864063    0.66512094996726
H         4.40062746355219   -2.86534409501989    1.14935991150221
H         4.01296025226821   -1.82699485757229    3.22202104227985
H         6.11050562238555   -0.33356428560643    2.96169545444202
H         4.74250289851126    0.34353842102605    3.75901508419365
H         5.48793086933731    0.71937177802697    0.82549580975269
H         3.65651198724118    2.40502008613140    0.66281694344549
H         3.38766137270176    2.30237025011364    2.49522147687744
H         1.72733583590295    1.19170939293186    1.25172025461317
H         2.54025061678553    0.03385899918166    3.30830706294912
H         0.64621870532355   -0.95699268479384    1.96196341968772
H         1.46372002284109   -2.11691142024058    2.80314119233958
H         6.16038540268518    2.39359239465968    3.14219362270309
