36
 energy: -51.084983628227 gnorm: 0.130750258441 xtb: 6.4.1 (79825abcba525fcdf90b791dcacef51065a7a4e7)
C         1.84814027597308    0.35950071034722   -1.07150476642621
C         2.95924182039837   -0.10454655840195   -0.10974980538305
C         3.01547924428667   -1.63395035003415    0.05577458421242
C         3.85596986700301   -2.18429992393623    1.20507487693366
C         3.76659239076270   -1.26080304763992    2.42221498308569
C         5.02004527604677   -0.45373979343897    2.79857635345489
C         5.30917730470131    0.66775098218972    1.78074870417017
C         4.07022925994392    1.53792501716372    1.48609755910569
C         2.82917623241447    0.66280294841242    1.22914148140861
C         2.55996947266136   -0.32540237052785    2.36750896878879
N         1.34679671763446   -1.10740335645919    2.15076382302549
N         6.45412631328895    1.46233668160578    2.22707311637320
C         7.51157430543756    1.97965144049839    1.55468201532004
N         7.96248090510760    1.61972158383505    0.34650935087741
S         9.36240395308216    2.51115973751843    0.15941272063866
N         9.29247008212395    3.34415380461588    1.60488855620599
N         8.27987990981940    2.86987603740745    2.30757134699706
H         0.96468893310755   -0.27389915235203   -0.93489888283297
H         2.12608927046301    0.27336238448592   -2.12815299405576
H         1.58288547170583    1.40303378924513   -0.88179956629193
H         3.91674480547962    0.14710029465295   -0.58692704888900
H         3.45624778530480   -1.86759386875200   -0.92274220607432
H         1.99395232352643   -2.03636862033639    0.11180364945406
H         4.87307970228712   -2.19432575928320    0.79069621663409
H         3.64989615442186   -3.22848549047887    1.48086958502298
H         3.61185796423413   -1.82759195446453    3.35466572872546
H         5.88641998261691   -1.12398760308389    2.72315388404530
H         5.12225903110490   -0.06107741900529    3.82145536828495
H         5.75586162919141    0.16667608677202    0.91346283798469
H         4.37011614418601    2.11478898533480    0.59995069246099
H         3.85747570057705    2.28124707243966    2.27092478393769
H         2.02097217660011    1.40417409010137    1.14851314699270
H         2.53899871004432    0.17570293615837    3.34387534134951
H         0.46029929899940   -0.60151300841990    2.18015058753149
H         1.19165439429495   -1.68874172367062    2.97500352179241
H         6.32110013621909    2.04697116822756    3.05007375482432
