36
 energy: -51.076800861293 gnorm: 0.136377432314 xtb: 6.4.1 (79825abcba525fcdf90b791dcacef51065a7a4e7)
C         0.94204221830168   -0.51638163918000   -0.18359322251255
C         2.47941572713874   -0.61163498967607   -0.23122239994927
C         3.06703241449617   -1.99525498856615    0.10034834523905
C         3.40267958513522   -2.20366017243269    1.57483418263346
C         4.15395750680565   -1.01758668765385    2.18399420978350
C         5.50782962282323   -0.65690228179141    1.55068538128401
C         5.59617143216096    0.68380668165187    0.79437382915687
C         4.28138192203633    1.12545680916968    0.11962345836937
C         2.98791561464743    0.51978234117156    0.69597486257088
C         3.24682057920415    0.21159884535370    2.17343674262042
N         2.03996805404370    0.02612221780501    2.97306006868693
N         6.08493961984032    1.58019408964593    1.84274181669683
C         7.32502176324722    2.10874528677369    1.69869126929867
N         8.08293115652973    2.02574140282308    0.59813178018753
S         9.45835751888485    2.85600729246842    1.05454448303890
N         8.97002798237078    3.37502877343143    2.56461773348299
N         7.81280623832420    2.79026831920255    2.81548505731063
H         0.67046085158072    0.54483755243958   -0.16358818539289
H         0.37704982153789   -1.03138008184316    0.60173543802755
H         0.56861051863203   -0.97382568780802   -1.10370362673478
H         2.71938900858801   -0.30998804808280   -1.26042506698780
H         3.92699998884903   -2.21722469898426   -0.54583002666943
H         2.27211752182756   -2.70713048358213   -0.16411438613968
H         3.99965576861314   -3.11823794817278    1.69097851161869
H         2.44724955701348   -2.33227663997812    2.10347757451037
H         4.29436158310492   -1.32778254699678    3.23219360642867
H         5.77553650227814   -1.38249301476982    0.77134149186633
H         6.33957682844360   -0.73482816570836    2.26695138674982
H         6.44614888392100    0.75706032775610    0.10520046494270
H         4.24705602300574    0.75246698213303   -0.91365324834999
H         4.31802155809838    2.22529047195850    0.06700262221129
H         2.25328332001840    1.33745501193952    0.72841940396818
H         3.84454834092923    1.04920720352869    2.55549866291400
H         1.85714527303963   -0.97824067291577    2.99536043384789
H         1.23792196598738    0.47404874211163    2.52867464517441
H         5.80996947800388    1.48015266739948    2.81804004481796
