36
 energy: -51.096760048166 gnorm: 0.124980328253 xtb: 6.4.1 (79825abcba525fcdf90b791dcacef51065a7a4e7)
C         1.26293909520378    0.22642662460436   -0.70398569435418
C         2.67952914420211    0.12241170463198   -0.10622938534948
C         3.16248384593220   -1.33403059825494   -0.22938558934799
C         4.30473150704477   -1.72671194604407    0.70403387466130
C         4.11333373434008   -1.14673862613863    2.10733805922050
C         5.24393342065726   -0.18140968366739    2.49980136500681
C         5.22895361658600    1.04972174828914    1.57168338466897
C         3.80884424452412    1.65102202110765    1.59891846768730
C         2.67592613574407    0.63669598840157    1.35454808706262
C         2.74062177301786   -0.52276085440254    2.35273484703512
N         1.61158857604375   -1.43848349249049    2.22224280965621
N         6.11354581459897    2.13371761099235    2.00055370365783
C         7.40936243628905    2.18384187004666    1.60524693564699
N         7.94828416877320    1.24561131567914    0.81668226428552
S         9.56650147218902    1.62531859569403    0.65344375976293
N         9.48286803022602    2.94362100397525    1.67484204594420
N         8.24587388507300    3.20753121977666    2.05462914839845
H         0.61439181155088   -0.47745751308434   -0.17080996163128
H         1.41763946370063   -0.16393375684246   -1.71634308997912
H         0.84611912781324    1.22601144538774   -0.85365448956666
H         3.33905333027451    0.72655775768147   -0.74487763949680
H         3.44966860576870   -1.53966170252824   -1.26938657394992
H         2.29766011844541   -1.98587787897737   -0.04025072670780
H         5.33672752821275   -1.49928938424972    0.40472504776141
H         4.25659794196398   -2.82036302012662    0.80632301403112
H         4.05550852158130   -1.94376551101710    2.86632499296532
H         6.18957976523103   -0.73733213330606    2.45258903098695
H         5.15774577230924    0.24777428158552    3.50939815302867
H         5.48490911393554    0.81733416841975    0.53088057613770
H         3.64934531336319    2.47729231416112    0.89195458887192
H         3.63161807393879    2.07395510525088    2.60064897832976
H         1.68032926350680    1.09693761121081    1.43386002564516
H         2.82778522961452    0.01185768223688    3.30741967318823
H         0.76994762162395   -0.86034893620463    2.21404323055408
H         1.48498383780309   -2.10517963559203    2.98439895969565
H         5.68748706055436    2.85926835515602    2.57402866463091
