36
 energy: -51.096790183705 gnorm: 0.114770838177 xtb: 6.4.1 (79825abcba525fcdf90b791dcacef51065a7a4e7)
C         1.10599767864476    0.20958520143345   -0.73287834826684
C         2.53840466448907    0.08613521176194   -0.17805452292114
C         3.02951343529512   -1.37061339070329   -0.25763255951661
C         4.23998182799788   -1.66093096168055    0.62592973358633
C         4.11964988756385   -1.12494472642700    2.05439180643731
C         5.19081172704641   -0.06270794567782    2.35172749237978
C         5.14763047462003    1.11925723409652    1.36258354085224
C         3.69710060352408    1.63885323118346    1.43327685875014
C         2.57907258547488    0.58987707870333    1.28583157642761
C         2.76398583901191   -0.48885526916466    2.35683402432525
N         1.69348001876648   -1.47631965738738    2.45287330773150
N         6.13688644507420    2.12514961538116    1.75121359205219
C         7.48828058078561    2.04301176143143    1.68115732624678
N         8.16230173411989    1.16321971490269    0.93001892558890
S         9.75194113935922    1.66927311317577    0.84996776967348
N         9.53416762532893    3.06041721136131    1.74744370044657
N         8.26095887777138    3.13147457476130    2.09085554343771
H         0.40977675481570   -0.31094654023455   -0.06604555978894
H         1.03240171866245   -0.18773453769537   -1.75165290636575
H         0.77458819644724    1.25144728099795   -0.73367308466188
H         3.23838572468407    0.75185918933695   -0.70214836067945
H         3.20132275170758   -1.70639333828474   -1.28918222357029
H         2.20657082110821   -2.04051798349066    0.02975268574040
H         5.16637418845920   -1.28873516837949    0.16811960443972
H         4.38504132308495   -2.75063388696330    0.60701164702467
H         4.33067637161164   -1.94396195111798    2.76102851255239
H         6.12887341679353   -0.63236650110442    2.38421157722111
H         4.97460041141645    0.29544033478795    3.36951694669106
H         5.48271576456657    0.75693714972158    0.38318080164525
H         3.54720945801608    2.52768218775511    0.80440788009125
H         3.56079672322891    1.93524629292340    2.48556862480871
H         1.66063147647855    1.13965039185308    1.53790528718015
H         2.79375021883447    0.08671554398760    3.29100207349403
H         0.89188332545795   -1.10095973249353    2.96200391583888
H         1.96092162771690   -2.22778351736642    3.08940420081314
H         5.78633917817730    2.74417848800134    2.47973494924116
