36
 energy: -51.082111667100 gnorm: 0.132418161400 xtb: 6.4.1 (79825abcba525fcdf90b791dcacef51065a7a4e7)
C         1.66480629490458   -0.09041244443100   -0.87533083543728
C         2.99042928807196    0.12765392138927   -0.12032766244206
C         3.70682527713320   -1.23470277606308   -0.10038147923721
C         4.18017781685213   -1.79678902425742    1.23760082041834
C         3.82936890276739   -1.06131310065793    2.53308259464428
C         4.95561439624585   -0.13447854169231    3.01959244388278
C         5.23112959955655    0.89747058537521    1.90761926842143
C         3.95307168101845    1.70145900296794    1.59268287614280
C         2.74478157564679    0.81094906731170    1.24756744522969
C         2.55803136276847   -0.23392704743866    2.35131592978765
N         1.45233144465891   -1.15338909185407    2.10169759828195
N         6.27985777071282    1.78631952069702    2.40921363994453
C         7.39790539096688    2.00823945097240    1.67529154478357
N         7.85827397363637    1.11781207448167    0.78774026037273
S         9.31755255610740    1.65367939073649    0.17716356834925
N         9.22612513700225    3.06439764012226    1.06580595849954
N         8.13493566286688    3.18765458568284    1.79939618108374
H         0.84790388022734    0.12626661847055   -0.17814833102576
H         1.48362693966402   -1.07668266325287   -1.31762712747573
H         1.65440564481393    0.57492794932901   -1.74281192129864
H         3.69341628104146    0.66057096534352   -0.77580069476096
H         4.59294970869965   -1.16382489490763   -0.74545596560792
H         3.02936675371577   -1.92195407163357   -0.62700520208407
H         5.26750861279252   -1.83142516929492    1.08648941286304
H         3.90758116840207   -2.85655633433456    1.34454415270678
H         3.49408836132360   -1.76740729616393    3.31004765233620
H         5.87299949622232   -0.71200589692299    3.19392691384683
H         4.62448150374782    0.29317635978744    3.97791136045161
H         5.59855408989374    0.34228925399822    1.03609152042282
H         4.12852145922490    2.34547544510390    0.71951587213179
H         3.77682115970582    2.38862855387252    2.43558219577397
H         1.83276454487257    1.42279776260895    1.19107012381708
H         2.30045745292747    0.35500850590252    3.24106204059175
H         1.32973387981085   -1.65824338652415    1.22263090113773
H         0.53648151282419   -0.71262020739986    2.19300038153180
H         6.03303286497155    2.57323347532646    3.00642999157759
