36
 energy: -51.097281922924 gnorm: 0.121107438800 xtb: 6.4.1 (79825abcba525fcdf90b791dcacef51065a7a4e7)
C         2.51084878580812   -0.02456727887767   -1.36806184208289
C         3.36646212721125   -0.47239437052336   -0.16713060964229
C         3.01207470244337   -1.87434626680069    0.36067368144330
C         3.57752141816610   -2.17714199761137    1.74587585564633
C         3.52607852163261   -1.04568525230264    2.77515915999355
C         4.90925685155695   -0.45458573775271    3.09384740044956
C         5.51550218756230    0.35807302572270    1.93222597099163
C         4.52203783950233    1.33388956429401    1.26903287811010
C         3.20627217186844    0.60860716265228    0.93020574144336
C         2.62807746996382    0.06908618598611    2.24150684130938
N         1.22174575005969   -0.31921945358366    2.28324362058463
N         6.74218324987276    0.98444127191753    2.42659075298291
C         7.43457911001447    1.87786159385065    1.67805304236896
N         7.11781308955499    2.35790871765559    0.46901975470233
S         8.45385746304892    3.20001148841171   -0.07439539175862
N         9.42188461504149    2.89902849325903    1.25244405626919
N         8.72173787920529    2.19066393749257    2.11965542600266
H         2.78481784030415    0.99348184944885   -1.66615538320132
H         1.44315478745147   -0.00417690587779   -1.12149604598907
H         2.52151714022675   -0.70272614333730   -2.22555598306306
H         4.42881474613298   -0.45715796347774   -0.44821955339729
H         3.39897183777302   -2.56003623408058   -0.40515997191648
H         1.93032025175097   -2.06296846429642    0.30751404170230
H         4.61094223815753   -2.51908050172764    1.59944471556131
H         3.00705209535983   -3.06720853722469    2.04786742045630
H         3.10215665038111   -1.32347145866595    3.75382246765723
H         5.61958793480540   -1.27156303701779    3.27688742871995
H         4.80677502246652    0.22149120626652    3.95601346472312
H         5.91005060838919   -0.36125862305105    1.20443394584517
H         5.00377990122801    1.73953244598688    0.36828935868917
H         4.35765197866261    2.21827699148802    1.90510024768518
H         2.56175479859093    1.39370462882694    0.50884459092133
H         2.65273572515190    0.89323782627594    2.96607819291815
H         1.08825204516067   -1.22285765391721    1.82686249222730
H         0.49411195421136    0.35361484449133    2.03985590278157
H         7.25451309313511    0.73339503830710    3.26998710138074
