36
 energy: -51.095211670557 gnorm: 0.116534499118 xtb: 6.4.1 (79825abcba525fcdf90b791dcacef51065a7a4e7)
C         1.22789479839650    0.34123836452836   -0.77021998658972
C         2.59608401839689    0.09366755580366   -0.10567039383845
C         2.94916802566666   -1.40191165636686   -0.19628805512772
C         4.13168169057097   -1.84287690309706    0.66243861438616
C         4.05772860197349   -1.25575640086985    2.07385118357465
C         5.25391165952533   -0.34762018773765    2.40336286285021
C         5.21894344728967    0.96885902797389    1.60150765127514
C         3.82093401796116    1.60788920133688    1.72888332886357
C         2.67185343178821    0.66185922704098    1.33300593660449
C         2.73077620014555   -0.53074666752760    2.29171445073332
N         1.56719218252250   -1.41175630088596    2.27805807275804
N         6.24513618582934    1.91589025191202    2.03916104544223
C         7.50331382599155    2.10588943359529    1.57138982232462
N         8.30219515147947    1.11756400736386    1.15002430217401
S         9.79056468902541    1.82040224902912    0.86678202977893
N         9.29675319355416    3.36770977302264    1.25428671571459
N         8.04528290709631    3.38848972243525    1.67551310208589
H         0.46774347466972   -0.34930067243760   -0.38855435545566
H         1.41995379243692    0.11032223623334   -1.82424656880027
H         0.88261197397732    1.37636972578181   -0.70245332471094
H         3.32059601198244    0.57504398367468   -0.77738118934785
H         3.09501801125904   -1.67798668689913   -1.24931783225589
H         2.09817320549916   -1.99214806940392    0.17252871055991
H         5.06345729045451   -1.58801037060686    0.13979156585682
H         4.10451491271372   -2.93712241137083    0.76607921971408
H         4.04884803648756   -2.05841810685129    2.82904134494786
H         6.20330011887427   -0.83914087942043    2.15317333240516
H         5.20834875900794   -0.05078126292296    3.46200519577616
H         5.43793404343001    0.71925477349032    0.55626673775871
H         3.89905442331800    2.52858669752757    1.13375828769282
H         3.58545995472565    1.90869154395877    2.76223490904337
H         1.66943852093194    1.08266065457853    1.49858512929489
H         2.74355606213488   -0.07221646681844    3.28892274880463
H         0.87450735744389   -0.83553299174453    2.75849615084426
H         1.64257899615748   -2.18384352076680    2.94107593802613
H         5.83174432853874    2.79782306670719    2.33601989923499
