36
 energy: -51.092362738161 gnorm: 0.117805299631 xtb: 6.4.1 (79825abcba525fcdf90b791dcacef51065a7a4e7)
C         2.32589371974270    0.40734351383826   -1.24217297116920
C         3.20763296502109   -0.06187310339510   -0.06861822748023
C         3.19654842898834   -1.59764220889180    0.03591527012141
C         3.86609536028654   -2.13458777768085    1.29829263631717
C         3.68991311455205   -1.25242706353038    2.53644330970453
C         4.99133954130828   -0.47738551269101    2.80053213850745
C         5.34872970419960    0.68759957789445    1.85586606635723
C         4.07099066763235    1.54421537300467    1.74358645067311
C         2.88433601080001    0.70183503962770    1.23928126066537
C         2.54532176848877   -0.25142685543398    2.38874357482733
N         1.32462819968001   -0.99343965538379    2.08938372753018
N         6.46364936975890    1.41059826562298    2.46881562517504
C         7.53322736044422    1.87206004443226    1.77529090724345
N         7.57541704106077    1.63607950802568    0.45806630134578
S         8.84260617830421    2.53386343713149   -0.15648017566489
N         9.27552841453912    3.18477995764190    1.31900492101639
N         8.53438508315110    2.69443133774755    2.29589086543088
H         1.27211421913134    0.25755245444820   -0.98245346683647
H         2.63002468642244   -0.13393086569576   -2.14533814066003
H         2.51134337693819    1.47428505576909   -1.39235160597556
H         4.23369702827578    0.22633727969857   -0.33687838707409
H         3.79640688644889   -1.99128577468551   -0.79569513216963
H         2.16361504547443   -1.91208275582359   -0.17090037643403
H         4.95320100300111   -2.25494606910433    1.19810385444229
H         3.41683709274173   -3.12677889403285    1.44854700766099
H         3.44874468351924   -1.93825975965031    3.36477178561207
H         5.94502230371871   -1.01776893307141    2.73728080173526
H         4.85819412448252   -0.14874186288738    3.84225115780087
H         5.68725852462728    0.44715894955662    0.84079255995645
H         4.26020564268699    2.41595468586101    1.10153607090194
H         3.76678050182946    1.97759400459634    2.70970479382348
H         2.00282192633491    1.32122341622483    1.01878905391473
H         2.45276293274003    0.33159710762090    3.31413726589146
H         0.58416481567642   -0.30148635358381    1.96456024669667
H         1.14470176713160   -1.76911107300877    2.72762728666263
H         6.56153254157868    1.38843390352796    3.48210289955380
