36
 energy: -51.089305914199 gnorm: 0.130325664676 xtb: 6.4.1 (79825abcba525fcdf90b791dcacef51065a7a4e7)
C         2.14814413713532    0.32503895100080   -1.22987189264392
C         3.23188381989321    0.07262835568201   -0.16373107474033
C         3.52218600355457   -1.43093610911456   -0.00671068668458
C         4.33346709936937   -1.86661098308298    1.21075004787650
C         3.81460206352325   -1.23787940872796    2.50602626908477
C         4.93105609309429   -0.33388219647774    3.05417090131253
C         5.24162658961044    0.79139353824901    2.04689115781647
C         4.00579466717814    1.62645962651262    1.65395545172169
C         2.85477329029072    0.71145615326327    1.19570218954066
C         2.60808145238683   -0.32458638194554    2.29600282339537
N         1.42212870476767   -1.15104653067539    2.09408256622815
N         6.32443828702772    1.60206169029035    2.60529613821471
C         7.36645029105754    1.86677672076334    1.77942838058115
N         7.27577590827089    1.74665351217743    0.44905398667240
S         8.65973003573879    2.40825490867259   -0.21155651339240
N         9.40774860157279    2.59623746781094    1.26942324137141
N         8.58786626503825    2.33222206508541    2.27048776564894
H         1.31182381728477   -0.38269326192154   -1.23499504974945
H         2.62071323219352    0.12306589656753   -2.19789371959485
H         1.80604159587197    1.36295624137764   -1.19820179209878
H         4.19102024250496    0.46448798787418   -0.53025466313441
H         3.89376949511673   -1.86329182908517   -0.94551605520700
H         2.52360769086488   -1.86292938423144    0.15083333337213
H         5.37304108829071   -1.59445683171224    0.98372443666072
H         4.35806340601178   -2.96036481663313    1.32006678382761
H         3.47778905877102   -1.86631109970359    3.34643532468625
H         5.82561434127332   -0.93775687328079    3.25573157480930
H         4.46323561655209    0.11566976054189    3.94296779159233
H         5.55942851162076    0.25276546090506    1.14596417618470
H         4.42763268861404    2.29197481425190    0.88772921524435
H         3.69260709025733    2.25791549156491    2.50066823742064
H         1.99836846338845    1.39981059074552    1.15026215731456
H         2.56500610777768    0.25228026653947    3.22885165945158
H         0.67733415458707   -0.51545866994593    1.80429739490208
H         1.16994221314758   -1.46463222662481    3.03187811905975
H         6.57021956370150    1.71460385450700    3.58700348074816
