36
 energy: -51.082486801819 gnorm: 0.144865164162 xtb: 6.4.1 (79825abcba525fcdf90b791dcacef51065a7a4e7)
C         0.90980049878050   -0.02896845562850   -0.59411874718990
C         2.39142885772395   -0.11184357714453   -0.17846480437466
C         2.78072170658271   -1.59122601315612   -0.00666382259082
C         4.19208235708298   -1.73730039667251    0.55629591655421
C         4.23711272927179   -1.06077387256798    1.92835602677817
C         5.44574880290967   -0.11085202457328    1.95982684930816
C         5.18211791095569    1.14620527539590    1.10682175784524
C         3.74831806254191    1.70026642115063    0.97935169615683
C         2.60359382260219    0.68162689046876    1.13445666564993
C         3.00512479109052   -0.23461829676630    2.29384018576203
N         1.93086798435280   -1.10196128646273    2.76710601619701
N         6.06166549485986    2.17556039671629    1.66207326875337
C         7.40027711026123    2.02492856196422    1.50926745946442
N         8.25401223984835    1.31269118473130    0.76334407422669
S         9.82454341501443    1.74924518384547    1.12708037802130
N         9.37806940349639    2.76191809957557    2.37741024490580
N         8.06067201065537    2.81172454495661    2.45502977210224
H         0.45143019012801    0.96584252857623   -0.61842066262922
H         0.22409913287613   -0.46035070876974    0.14405732398506
H         0.64816382781168   -0.49314687295908   -1.54878837489350
H         2.86501382861127    0.46196244845565   -0.98735300656028
H         2.66765795902913   -2.08711192352006   -0.98014985037421
H         2.06906783764915   -2.11688300086493    0.64589304115447
H         5.02477444799994   -1.44097690104054   -0.09573081437976
H         4.30549731249519   -2.82674534909308    0.65168631696405
H         4.36489412067024   -1.82116438769382    2.71584250770717
H         6.37931364000097   -0.63451302116683    1.71536491090752
H         5.64144974448542    0.25336433329648    2.97961136342273
H         5.54926408905834    0.89994291597997    0.10315536220036
H         3.61419171399267    2.16486111873447   -0.00762465589519
H         3.61160436501626    2.42214476759298    1.80029416820763
H         1.70837497990838    1.24732478025039    1.43092754838802
H         3.32161363076867    0.46383056875102    3.07923280697097
H         1.03550805453112   -0.66109737142544    2.55115255128208
H         2.10522693042641   -1.33192454761383    3.74593713913180
H         5.73498675750063    2.71127324362534    2.46401855241291
