36
 energy: -51.094410036189 gnorm: 0.128523310365 xtb: 6.4.1 (79825abcba525fcdf90b791dcacef51065a7a4e7)
C         1.44290792136155    0.20749015157466   -0.83610705108607
C         2.78056460791998    0.11695660931562   -0.07627987188518
C         3.27332627907044   -1.34027196968794   -0.13379241856069
C         4.52951340363943   -1.56629738254910    0.70352872630836
C         4.25389690325622   -1.08655795804426    2.13046616234320
C         5.16441477416977    0.07586311362881    2.55927561603094
C         5.04003960562052    1.28428399408168    1.60976954371125
C         3.59700400225382    1.80732410606471    1.76172904492549
C         2.66124033509975    0.64714479938895    1.37390437230486
C         2.86299840028648   -0.50068140613321    2.36722768753637
N         1.76784606986206   -1.45155783603915    2.20361995737327
N         5.98744664153336    2.37013990732915    1.86436132460732
C         7.29238665678885    2.17882431377816    1.55059310515177
N         7.89537529320049    0.98353814466457    1.56618535359673
S         9.45532127852925    1.16867368974256    0.99895963545933
N         9.30827761562750    2.82923033397914    0.90356548592558
N         8.08027697503559    3.25504208584599    1.13753159167679
H         0.98993747960057    1.19501240597543   -0.97738829570292
H         0.70124439431917   -0.49047739427538   -0.43119046789659
H         1.69893477297397   -0.19623089328536   -1.81935118398278
H         3.53911212606826    0.74905612439992   -0.55886879726465
H         3.62251216454932   -1.45925382256293   -1.16833281549980
H         2.51203719667268   -2.04553242751193    0.22903477986337
H         5.41923140023106   -1.03062363720864    0.34606807115200
H         4.73498609272586   -2.64620947612816    0.68295142254650
H         4.36222679205024   -1.90050208763547    2.86559633204251
H         6.21408771541908   -0.24617565255112    2.55739354286601
H         4.97607049198877    0.27293426731871    3.62539111212327
H         5.18090662463823    0.90572414295534    0.59014382300879
H         3.41540668338546    2.62036847083102    1.04483176303226
H         3.31611395378011    2.17873998855349    2.76017610699693
H         1.63931834106980    1.04667794811598    1.44721587142366
H         2.80613755917996   -0.12175543061698    3.39582844705528
H         0.89802522733834   -0.99254712250748    2.47818718500299
H         1.86903674784026   -2.27021146110584    2.80442042315906
H         5.64028471557147    3.26598167043419    2.20165882026564
