36
 energy: -51.084914593954 gnorm: 0.133545755656 xtb: 6.4.1 (79825abcba525fcdf90b791dcacef51065a7a4e7)
C         2.84310301028108    0.46471100158236   -1.34599762853473
C         3.46975475385298   -0.17065775200865   -0.08962459632634
C         3.12348384733149   -1.65570600286776    0.12100544113180
C         3.70974402041535   -2.20034538869998    1.42095435956932
C         3.62479567580134   -1.26341970004791    2.62810754207354
C         4.98067481609882   -0.68433439533741    3.06445030367263
C         5.53608819171764    0.27189702801310    1.98999722036905
C         4.46402647179316    1.33996428489402    1.69178521409944
C         3.17407188413981    0.67909322022501    1.17087810032573
C         2.60242424500336   -0.17482695978005    2.30619382155104
N         1.23700460995736   -0.58508708752966    1.99377117487615
N         6.72550296203590    0.96700833462425    2.48354856642682
C         7.42646056699750    1.72176179784227    1.60211434933535
N         6.92595587120605    2.26446785375813    0.48519329056362
S         8.17265030573808    3.17392029267435   -0.15363448086148
N         9.20837019851774    3.01285742903341    1.14617831761023
N         8.65275711816251    2.22113519963801    2.04535092656432
H         1.91559782109831    0.97531506953086   -1.06428780378409
H         2.65170252829598   -0.39741393796183   -1.99506416414685
H         3.56333926121462    1.16976045304251   -1.76964189268569
H         4.56381761832145   -0.08760983112479   -0.02665083438202
H         3.50114060116715   -2.25566725128555   -0.71791240742433
H         2.03134412379102   -1.77809928891269    0.09189100457957
H         4.72421458715985   -2.50361596933638    1.12906568146181
H         3.13871191640178   -3.10606321118782    1.67085461334781
H         3.20898085669771   -1.72388590616993    3.53900032639002
H         5.65345905345991   -1.52869355696551    3.26431213831729
H         4.87851656476600   -0.19209238480191    4.04331410977025
H         5.78265411527633   -0.37445550943412    1.13898527215017
H         4.82518365460873    1.95725768191778    0.85723456409743
H         4.34547691251775    1.93564469950958    2.61094589706626
H         2.41155880009174    1.43654866123691    0.93815313982069
H         2.61235139653937    0.46290052033370    3.19952616284152
H         0.62253980507675    0.21861524299390    2.13219753941824
H         0.87166078388904   -1.13335299988489    2.77308041112176
H         7.35517695095005    0.55385418171517    3.16884981856317
