36
 energy: -51.090057521556 gnorm: 0.123233838606 xtb: 6.4.1 (79825abcba525fcdf90b791dcacef51065a7a4e7)
C         2.28298399419442    0.48228364468393   -1.24050317206731
C         3.29090007283286    0.10540055347478   -0.13736065085374
C         3.35786443431584   -1.42829829655935   -0.02369210764841
C         4.13437667801991   -1.87597232799566    1.21195225616366
C         3.77476187015045   -1.21140271303090    2.54285017404797
C         4.90248176796275   -0.37299690266595    3.16692280234426
C         5.32929564243631    0.65539006395631    2.10035719996180
C         4.05742155059018    1.47438890816184    1.79937278953898
C         2.85794401703886    0.69590850925546    1.22727175383955
C         2.53901360123729   -0.34562431996882    2.30355949874588
N         1.44667542810483   -1.27515918225563    2.03327376416652
N         6.35823830772045    1.58156295906479    2.57465765713979
C         7.37437566919439    1.93619867815296    1.75026759308584
N         7.24149317152040    2.09177826666998    0.42713317724011
S         8.71267641808571    2.48298617460254   -0.25990968219847
N         9.46116695163003    2.60395805277499    1.22780600855107
N         8.65296849049745    2.25478776314144    2.21215183870210
H         1.23876599325952    0.21959140186328   -1.03815600220742
H         2.46874507287016   -0.10421296412221   -2.14752879469217
H         2.40846238643012    1.52455323229126   -1.54585336219490
H         4.28462372230456    0.46413741867551   -0.44011036655115
H         3.83458826972752   -1.76435680481543   -0.95436947748661
H         2.42565460353476   -2.01034157630608   -0.05210719673079
H         5.19979447260068   -1.67618896012937    1.03505076497756
H         3.98106208102450   -2.96079051759431    1.30423836870946
H         3.44536663947111   -1.98608913548886    3.25419855747456
H         5.71280559081859   -0.99641090191252    3.56724277449489
H         4.46246421958624    0.17383924153057    4.01442954005754
H         5.77873005462669    0.24756161492705    1.18686260547231
H         4.27368292334633    2.22156336528671    1.02289239642587
H         3.78491710612286    1.96871849020609    2.74548331706760
H         2.02724367593741    1.37029054867137    0.97335898722165
H         2.45635518020095    0.20623856628895    3.24878567908676
H         0.61769024413497   -0.74799406773436    1.75480149307878
H         1.10568645637244   -1.86813900874652    2.79056892368517
H         6.54526514042496    1.70256132745643    3.56823897973603
