36
 energy: -51.090171883088 gnorm: 0.127589177463 xtb: 6.4.1 (79825abcba525fcdf90b791dcacef51065a7a4e7)
C         1.75429841023330   -0.44273347318341   -0.85626026323773
C         2.96531635747941    0.13953454166587   -0.10176800411742
C         4.05097084206818   -0.95157550407694   -0.08008629726317
C         4.18902583635551   -1.78497902080998    1.19136156198221
C         3.86836325967351   -1.13936754676962    2.54140828412127
C         4.89520075599539   -0.08490499235723    2.98621898301573
C         5.18499324682173    1.01400767100909    1.94423853202921
C         3.84628121905118    1.74799034588633    1.72484403342847
C         2.74432377880957    0.75935661900671    1.30014319800165
C         2.57658599495446   -0.34786859462554    2.34456594853942
N         1.40547658964902   -1.19130864100865    2.12684191858477
N         6.19269014402271    1.99767448171397    2.34226707963136
C         7.33493014660550    2.01218195087635    1.61220001945231
N         7.44951246175314    1.71029723674791    0.31286020464904
S         9.06236193888718    1.89476753539119   -0.07974511746874
N         9.50628483775369    2.54194423088082    1.39411547117879
N         8.48129372352355    2.52016876509862    2.22655790130824
H         1.77087515077163   -1.52961763676625   -0.99319398675527
H         1.69323606411701   -0.00399825866069   -1.85873905408648
H         0.84435942414509   -0.15240103035045   -0.32425690959665
H         3.29324502713299    0.96938947328419   -0.74335961062014
H         5.00782210265884   -0.55609216677563   -0.44667855556424
H         3.78688806990017   -1.64637090001032   -0.89009654809596
H         5.23789483368975   -2.10785214565380    1.23551322706188
H         3.62930342242578   -2.72777366077101    1.10949784100591
H         3.81640449381578   -1.93671638029090    3.30048133255808
H         5.87345479805967   -0.51065235248450    3.24561058493088
H         4.55718056137833    0.37789946309801    3.92561626340192
H         5.68712112013902    0.56740661536022    1.07751897269845
H         3.97944452879327    2.39148441731779    0.84385404543864
H         3.62646801388136    2.35502514317319    2.61755699447779
H         1.80691505904392    1.33329440004872    1.26570211364730
H         2.43298770936193    0.22061177984417    3.27249222755585
H         1.40737364741543   -1.50530220169330    1.15520889060644
H         0.53841637688460   -0.67209318873611    2.26832129532155
H         6.17277801384209    2.28529533728093    3.31884335978684
