36
 energy: -51.090716254712 gnorm: 0.122366311372 xtb: 6.4.1 (79825abcba525fcdf90b791dcacef51065a7a4e7)
C         2.61605518554072    0.07647889584215   -1.32554863182859
C         3.42356648403135   -0.41187986635430   -0.10723408492980
C         3.00354845668379   -1.81520636122851    0.36594297259878
C         3.47635537312505   -2.18620749894604    1.76915787651387
C         3.49322358948699   -1.04277140484572    2.78627842140477
C         4.89005812490729   -0.49310842074270    3.11924538302402
C         5.54505392144144    0.20583712027289    1.91103693311464
C         4.58008432433041    1.27174663213879    1.35274935733700
C         3.21596396141619    0.64860470982637    1.00211070128965
C         2.60815159157643    0.10234117632273    2.29712531112768
N         1.20325585532239   -0.28715141174725    2.22744303286288
N         6.79336435341067    0.86318588378040    2.29974483176039
C         7.50297590226887    1.80653480464642    1.63306284271520
N         7.25565541234759    2.09157584882984    0.34848834621599
S         8.42128082530218    3.18341446648601   -0.14003749591835
N         9.19839482089871    3.21294093821145    1.33759313353877
N         8.62401127084891    2.40576105319380    2.21085456624109
H         2.91413796226113    1.09820454810497   -1.58548357927692
H         1.53250719330294    0.07370228668499   -1.16093705863526
H         2.69175482842342   -0.60814394544034   -2.17458961413779
H         4.48959482694080   -0.35843750328683   -0.36908081292732
H         3.32368120945544   -2.52396133980754   -0.40964886735789
H         1.90562703252845   -1.85012446791658    0.32182675621162
H         4.44722330787719   -2.68596358738835    1.65091275887066
H         2.84516371250004   -3.03660604539839    2.06457620890314
H         3.15220049570189   -1.34060956465480    3.79109306813289
H         5.56150604237129   -1.23477105592934    3.57159483273841
H         4.71794999261801    0.37284688310218    3.77606582260404
H         5.85726327785618   -0.49302467614799    1.12560379334254
H         4.94368722701222    1.69860552431080    0.40747433557307
H         4.46609734411441    2.08234218555414    2.09010093815873
H         2.45266839580021    1.33746288069115    0.61200790574768
H         2.73658948614162    0.93801457650742    2.99711907554112
H         1.23782463095855   -1.29951393072587    2.09862753832238
H         0.69874189295820    0.19010405824961    1.47972156489073
H         7.35215517255545    0.26902232745403    2.90929055324368
