36
 energy: -51.085522878113 gnorm: 0.123601959481 xtb: 6.4.1 (79825abcba525fcdf90b791dcacef51065a7a4e7)
C         2.18946346161165    0.31680560134008   -1.22929444300578
C         3.12893149640368   -0.22661257063704   -0.13523976314280
C         2.85711760134271   -1.73180859626316    0.03836639192846
C         3.84137042832722   -2.19404946716314    1.10971138027052
C         3.85645806889404   -1.29694258520240    2.34956479827672
C         5.15625927043456   -0.54960774735284    2.69037358588387
C         5.33881131732597    0.74873479976444    1.87902075318770
C         4.07821002573752    1.54305827576569    1.48033661694793
C         2.90243338928555    0.60397639521531    1.15208025210415
C         2.68422489783614   -0.31728015415672    2.35564746767210
N         1.33107603312907   -0.86157369287909    2.30064879043954
N         6.37871877813977    1.58668511737120    2.47727815321432
C         7.47244463511499    2.05578592219482    1.82794863983448
N         7.60824823185974    1.76478196684007    0.52817113700207
S         9.00985610261806    2.52572164661561    0.03227008288531
N         9.39948639520407    3.19964587609039    1.50949200959266
N         8.50377271974326    2.80596381765017    2.39648288199109
H         1.18282007644042    0.40927092290739   -0.80684670215096
H         2.05404165237979   -0.43542561406703   -2.01478159792054
H         2.56524049437949    1.21927070604370   -1.71884303415607
H         4.17552442227601   -0.09067931929522   -0.44183663429374
H         2.98967255012360   -2.29958384706950   -0.89245140340053
H         1.80622953963890   -1.83581879789817    0.34400202977802
H         4.81240481943086   -2.42089867377501    0.64932646582925
H         3.58284145156819   -3.17795122813997    1.52678775702961
H         3.78415562709052   -1.91551878117750    3.25884619885667
H         5.98750925899922   -1.20589389138941    2.40082605984540
H         5.12331235686075   -0.43213470685261    3.78400399513599
H         5.77341792443015    0.46863297667500    0.91183525252613
H         4.39506624225879    2.30228088885053    0.75154060905916
H         3.85750262187207    2.15991987538139    2.36606544642477
H         1.94938198065139    1.13866350198175    1.02908177847304
H         2.81996027608055    0.29571318564549    3.25600999926542
H         0.58061609387241   -0.25269244012234    1.97089159983459
H         1.02364160576448   -1.22420472927415    3.20363125247921
H         6.18169898702836    2.09468620269008    3.33747673308197
