36
 energy: -51.077670132226 gnorm: 0.136222451510 xtb: 6.4.1 (79825abcba525fcdf90b791dcacef51065a7a4e7)
C         2.28114033671716    0.47158188254500   -1.14266482480539
C         3.32310641710600    0.05799135187112   -0.08525825915085
C         3.60283802938614   -1.45475242529544   -0.03054647000097
C         4.38147065380340   -1.80015464670319    1.23619297558164
C         3.80762490598471   -1.14639055453178    2.49538255639409
C         4.92811749960427   -0.30394723164964    3.12699058645525
C         5.22120261357422    0.84683765472615    2.14357446161709
C         3.90474031133360    1.61800102048185    1.91719318255630
C         2.86294956558286    0.70454224749104    1.24462886447371
C         2.51689801039739   -0.35387063140659    2.29577730054176
N         1.46323675204872   -1.23217921950628    1.79711499846843
N         6.25941508610709    1.77416065328449    2.59486934060589
C         7.26978247610148    2.05559234742942    1.73587310017078
N         7.17786619876803    2.01473112034469    0.40079662134414
S         8.68824033799281    2.12235819438513   -0.30392888064365
N         9.41026403410711    2.51866842927879    1.14858281644042
N         8.56889000543618    2.35242521804588    2.15282098212185
H         1.26033498623614    0.44667260902434   -0.74557694407462
H         2.40366488452748   -0.23510465363047   -1.97137635563571
H         2.44827816408214    1.49991935894482   -1.47417113569263
H         4.33614902739130    0.42036439730452   -0.30946052480972
H         4.13544836819397   -1.83419579146720   -0.91299207645076
H         2.63693018474923   -1.95127689139126    0.13998931050010
H         5.46229729187035   -1.67205424898478    1.08879332009334
H         4.10541541180556   -2.84611565309289    1.43269150663952
H         3.64138757215113   -1.85840301197617    3.32004017922494
H         5.77182202536680   -1.00604143641741    3.15441688809381
H         4.65705655243609    0.21421533920992    4.05916352478229
H         5.57710534921152    0.39349820271145    1.21051268088486
H         4.05271928520098    2.56890294698510    1.38629942256360
H         3.62763488221313    1.83618357150375    2.96091464520816
H         1.91053375342846    1.23408020564062    1.09691447258626
H         2.23087319915573    0.05016078656254    3.27546398242471
H         0.65515077292768   -0.66793379534892    1.53011228603430
H         1.26821907948394   -1.99763956944612    2.44320560567941
H         6.45439690554065    1.93978045404327    3.58045325400765
