36
 energy: -51.089194496264 gnorm: 0.125638321280 xtb: 6.4.1 (79825abcba525fcdf90b791dcacef51065a7a4e7)
C         1.95061637471833    0.39460917659854   -1.01048311535849
C         3.08643269879359    0.05748329857618   -0.02502560336414
C         3.41409264269603   -1.44597059637567   -0.06864024211968
C         4.37436002521658   -1.89597155788577    1.02935154363015
C         4.02010967241895   -1.15046246286554    2.31814465665921
C         5.07619539355863   -0.09599909675259    2.68818929922968
C         5.09584334199347    1.17177563279548    1.81087910578375
C         3.67083662656787    1.75993742650128    1.76152366807855
C         2.68743250711533    0.64844540612577    1.34972338622031
C         2.64278033301790   -0.49162359175594    2.37107121378122
N         1.53450621982738   -1.37778110235698    2.02939087055407
N         6.06966399870862    2.14646526547216    2.30396488543925
C         7.28366246865389    2.09171872214612    1.70302301808867
N         7.75428958929840    1.07189883328886    0.97430842994091
S         9.25066244392925    1.48928372508863    0.36103051950466
N         9.20040458704440    3.05008032714542    0.95226513035945
N         8.16455985007569    3.17346014306014    1.76210737098858
H         0.95798285728727    0.01715452336075   -0.74113296438882
H         2.29239666345431    0.18486656672297   -2.03047095765808
H         1.85496174649700    1.48324082608052   -1.04274423391339
H         4.00854447319597    0.51260993054765   -0.41284751074163
H         3.91839628850993   -1.63047801762221   -1.02676139254054
H         2.47684774032580   -1.99767054165693    0.09197146984799
H         5.38950543643700   -1.56567387921019    0.77107681799162
H         4.37851753183377   -2.98440916672999    1.18471841980428
H         4.16487600698758   -1.79311125894826    3.20171808889224
H         6.05990905536673   -0.54616382422592    2.50061279134116
H         4.96739658280791    0.11244432110780    3.76319023901559
H         5.38404825759543    0.87745106479876    0.79446449177349
H         3.65004629870162    2.52210141260767    0.96992133102242
H         3.42208012069840    2.20339239350539    2.73887386821239
H         1.71347978892956    1.15894435556524    1.36124706288874
H         2.59055364089529   -0.18285665507165    3.42310397163171
H         0.67473540092714   -0.82710184273156    2.01480361910865
H         1.35889981227833   -2.10854224453680    2.71971329688862
H         5.80554962668822    2.89901823247456    2.93699813709723
