36
 energy: -51.087691202438 gnorm: 0.132016481488 xtb: 6.4.1 (79825abcba525fcdf90b791dcacef51065a7a4e7)
C         1.35920562867503    0.21079712404896   -0.75355974196716
C         2.77114824252166    0.11663977942705   -0.14330444021005
C         3.24526055954609   -1.34551912606350   -0.22664551019046
C         4.37372277498030   -1.68956853779038    0.74206667650799
C         4.11144183128457   -1.16224988103727    2.15465598621172
C         5.19021713723395   -0.10900475430634    2.45642018330300
C         5.11516963286732    1.06606421074520    1.46098420334066
C         3.72302490071431    1.69804222969064    1.66482542863140
C         2.64909239313482    0.65480564722168    1.30371042277063
C         2.76308263202555   -0.46801337849637    2.33869166888073
N         1.62877587937303   -1.38357628701176    2.26531014699733
N         6.04995145557110    2.13563359661482    1.81267215157035
C         7.37137206681556    2.09205128353784    1.51289098969646
N         7.88142833857053    1.26799152930928    0.58914017833837
S         9.51771961837585    1.58745852985546    0.68885655084049
N         9.46670113976547    2.78464537317068    1.85174563751713
N         8.20053911174844    3.02309189242833    2.14160479720679
H         0.83439440611391   -0.41775129237942   -0.02565666138637
H         1.22824185178862   -0.14777831228113   -1.78091219718877
H         0.92691316972111    1.21494687777028   -0.74279154587792
H         3.49171076066169    0.75018927409369   -0.67925303546942
H         3.57224194278134   -1.65674883488533   -1.22793494503545
H         2.37267460002146   -1.90249873115154    0.14344154036499
H         5.32999574648386   -1.26677578112293    0.40574706278303
H         4.54596883183136   -2.77052638571711    0.84557516937727
H         4.35327796861502   -1.91155285277951    2.92583502471444
H         6.22964516495084   -0.45255144744640    2.54062724432300
H         5.01596991986799    0.32236131408077    3.45365340222773
H         5.26368870171585    0.79911414036185    0.40767160255015
H         3.75775964473690    2.64402791274184    1.10637666784792
H         3.50831558826957    2.07486156620993    2.67757051986785
H         1.62381679509629    1.03387813915789    1.42387642085614
H         2.75522405605214    0.04692047487436    3.30803110471754
H         0.70519203966524   -0.95441975670229    2.33936319669206
H         1.73448887000492   -2.00486961025870    3.06793950357046
H         5.80424170323720    2.91461708907240    2.42064823261224
