36
 energy: -51.092291495597 gnorm: 0.122283000083 xtb: 6.4.1 (79825abcba525fcdf90b791dcacef51065a7a4e7)
C         2.22199862589920    0.42432586420625   -1.30079715632499
C         3.22479324504556    0.01560991166869   -0.20434219548728
C         3.18650145029635   -1.51306800029216   -0.02738264713419
C         4.18046170404866   -1.85179404832991    1.08054700625126
C         3.78925819346808   -1.24117526563691    2.42827455421457
C         5.00665043658212   -0.56345702025245    3.07850327087822
C         5.38948579190880    0.63827269232457    2.19160141070438
C         4.18841519156494    1.47830941584017    1.71120338546054
C         2.96511686073685    0.73562914855562    1.14195380366988
C         2.64117043051251   -0.24546678728944    2.27218045383311
N         1.39726813333745   -0.97717828623217    2.05401164372924
N         6.44164094575251    1.51288224482866    2.71074288712878
C         7.43344844655090    1.96451469054420    1.90435178556574
N         7.33442389226570    1.62354809615258    0.61342833535142
S         8.63107008646027    2.30542900541454   -0.18856838026301
N         9.22228064631425    3.05431360516585    1.18176449057278
N         8.52770717158813    2.75373988586393    2.26401421952358
H         1.24002825003018    0.16281100646484   -0.89130110129625
H         2.47008582109420   -0.04053793479956   -2.26180462795531
H         2.14886074554953    1.49618730527191   -1.50346289155737
H         4.20177455723293    0.33209880674194   -0.59572259077812
H         3.41630419837352   -2.05756807365777   -0.95316433712078
H         2.15444826455066   -1.80536689344285    0.21350033105892
H         5.22701236759434   -1.63712447020402    0.82565221906272
H         4.16625967588311   -2.94633998632958    1.18360110555730
H         3.42179730552281   -2.01480140019181    3.12191133684495
H         5.79523618409570   -1.31645572711925    2.94946329486707
H         4.89557512093516   -0.17167153043583    4.10079449052564
H         5.88643698614708    0.15733563202749    1.34041000328976
H         4.64215488057877    2.11821051048062    0.94139341483842
H         3.97624856314217    2.19549205625348    2.52014095018398
H         2.10383438079891    1.40961270562430    1.02678149064030
H         2.54716676252702    0.28117800131639    3.23064081874165
H         0.52261042960752   -0.47546531604691    2.21502198153828
H         1.36064067486980   -1.81052175002542    2.64188207606272
H         6.38175618762697    1.86473905152409    3.66438542279828
