36
 energy: -51.083950474844 gnorm: 0.140175005388 xtb: 6.4.1 (79825abcba525fcdf90b791dcacef51065a7a4e7)
C         1.22745289815602   -0.36686198569093   -0.57549131296787
C         2.63846684987703    0.04809384753012   -0.11537131852336
C         3.63443743354833   -1.10949991992730   -0.30942338919634
C         4.40758389993003   -1.61839984010383    0.90444057362784
C         4.29123086439360   -0.95487064353142    2.27865156372674
C         5.22947700253247    0.23838115213621    2.52357497100559
C         4.99647126340543    1.29766264922322    1.42769948710045
C         3.56356425943789    1.86374781989095    1.50077174436409
C         2.62764494670607    0.65569617576352    1.30908454898198
C         2.88492664876388   -0.37344944275614    2.41342508313721
N         1.78020101782417   -1.32338633890858    2.49998905443348
N         5.95414723925877    2.39802195703178    1.54408806996131
C         7.27216025252579    2.09683031522471    1.44385880422870
N         7.83650163225615    0.98929912811036    0.94642446833736
S         9.48144071070088    1.24669846618042    0.81461904625528
N         9.40713478051506    2.70552134430883    1.62362132645504
N         8.17211581564400    3.03230020622092    1.95826305923994
H         0.57139092200626    0.48055842171028   -0.34788602266615
H         0.83787389989495   -1.21223581128413    0.00308645483316
H         1.20004622734266   -0.59399437233720   -1.64458869715026
H         2.91595456904530    0.85928357076576   -0.80298169589636
H         4.36446755630277   -0.94692251096942   -1.11377773625036
H         3.05839250979855   -1.94535112460893   -0.73146839283564
H         5.46425746206622   -1.57574749726280    0.60788640454039
H         4.07879471955777   -2.63193228816374    1.17555356797038
H         4.53566311981981   -1.59802415900689    3.13961801609606
H         6.28679258460354   -0.02563228771900    2.38975988599138
H         5.17566638041899    0.74180476386435    3.50060207714967
H         5.05082968284083    0.94336625218115    0.39121169423859
H         3.42891311867737    2.59854813860532    0.69460921610910
H         3.48355400623713    2.18938514749981    2.55020218173378
H         1.61425396660015    1.03862941379017    1.49809980041373
H         2.79903778692884    0.19945551384721    3.34575582941328
H         1.80670002158003   -1.73572076383626    1.56620940683226
H         0.86326735148337   -0.87773530254335    2.54495932228319
H         5.77708253511595    3.08868534405483    2.27103763763655
