36
 energy: -51.088203741693 gnorm: 0.131941859983 xtb: 6.4.1 (79825abcba525fcdf90b791dcacef51065a7a4e7)
C         1.66557644462257    0.23635201821080   -1.01374871871529
C         2.89020538289237    0.09100522515574   -0.08961811088079
C         3.07749425011378   -1.43651515057239   -0.05438589015460
C         4.27125162883913   -1.69653163823204    0.86078351890739
C         4.02856460045276   -1.13856395095624    2.26507689903282
C         5.12277545378631   -0.18977581152896    2.78145539905727
C         5.16396205962160    1.04438879370396    1.85817139665449
C         3.77220006063718    1.68171427246661    1.66888553660319
C         2.66604847729460    0.66457377314739    1.33134810200247
C         2.65987684157157   -0.46699788733831    2.36305058862033
N         1.53956447083829   -1.38929390577416    2.20632678778883
N         6.15550185460929    2.07580703109817    2.16558863261620
C         7.43002576052050    1.97567700571043    1.71449731825830
N         7.81875056869492    1.37195471532446    0.58447083663713
S         9.37606519888139    1.85689539569050    0.22522810831427
N         9.51601802583445    2.87297664581982    1.54286324340102
N         8.36028142826599    2.90662377789362    2.18097149546516
H         0.87382856418296   -0.44963266112480   -0.69296352466337
H         1.89374414486222   -0.07972260794016   -2.03806178667417
H         1.31036155515017    1.26963121914363   -0.97546118995400
H         3.69951470403655    0.69603755021304   -0.52181080841547
H         3.35236108453820   -1.80175089082441   -1.05309124285602
H         2.16099659979843   -1.93609214744095    0.29065301955035
H         5.19905208820853   -1.34677513701037    0.38836495756792
H         4.39614493876976   -2.77300085964178    1.04643984425407
H         4.08535333955449   -2.03471936294809    2.90408965445941
H         6.12818483086277   -0.63028644826584    2.75639257226218
H         5.00767438180053    0.13051042798062    3.82791673219021
H         5.48139172682787    0.63355399146032    0.89212747246756
H         3.83275280608511    2.40070203222703    0.83981955647622
H         3.49181343385000    2.21051205182528    2.59381892183668
H         1.64215220132766    1.06456073931228    1.30015970627605
H         2.69312525350644    0.03322742246767    3.33952729717030
H         0.70453850589159   -0.89870546813970    1.88272067320846
H         1.23953212691697   -2.06623645109026    2.90855459117202
H         6.20104358617578    2.59472223036846    3.04050373621778
