36
 energy: -51.086410272415 gnorm: 0.125479463045 xtb: 6.4.1 (79825abcba525fcdf90b791dcacef51065a7a4e7)
C         1.25956894474083    0.36085135941680   -0.71895927716886
C         2.62775387725899    0.11781332089036   -0.05272994816485
C         3.12635496541171   -1.32995734394951   -0.21082436450396
C         4.23577247487046   -1.82916799475276    0.71122861500225
C         4.23026832080293   -1.10930644576172    2.06179655724554
C         5.35447272454773   -0.08296435042270    2.27842841793172
C         5.09411410516718    1.13353149562658    1.36756991942322
C         3.68053854886409    1.73592674247427    1.50150452433072
C         2.59928350014238    0.64349763821507    1.40371005615673
C         2.89451356818366   -0.46133944835783    2.42207965487056
N         1.84456278962404   -1.47465860831813    2.38922108171274
N         6.01948974278609    2.12815554218595    1.91152127016378
C         7.34801386509417    2.11248514948354    1.64189432897186
N         7.93595953874737    1.15557771540748    0.91306274053778
S         9.55674175671763    1.54233138602366    0.79931625418458
N         9.44016562142459    2.92165027490338    1.73315759885371
N         8.19171065715969    3.11906810660993    2.11581639584711
H         0.46720873176024   -0.12166677557923   -0.13613482164478
H         1.16629809636261   -0.04545535913696   -1.73256487382941
H         1.14552505692465    1.44463976837434   -0.80674377472046
H         3.38881256776531    0.71065446818199   -0.57919477486754
H         3.47231815417898   -1.42491686662361   -1.24892523682362
H         2.31507225420870   -2.06103916500394   -0.08458389970291
H         5.24613603194755   -1.80762391730672    0.28108458708461
H         3.97261570890819   -2.88126413241204    0.89204561524189
H         4.28785539716470   -1.91587399993145    2.81065519174097
H         6.33941014805502   -0.50172383713827    2.03334775903839
H         5.35919992977091    0.09961625748451    3.36358039596907
H         5.21497095105001    0.99632762215634    0.28620208721632
H         3.50072359763160    2.28639796408934    0.56736938903139
H         3.57333983797632    2.31824763060545    2.43056658690851
H         1.59647330378849    1.08695979071081    1.48760793647191
H         3.03967030442861    0.05335560852616    3.38064944511886
H         0.93003783274146   -1.13514137120629    2.69094683759798
H         1.94540788060876   -2.28504526697836    3.00118368235891
H         5.73065543748651    3.10109559825859    1.99389771553856
