36
 energy: -51.084148592936 gnorm: 0.128264740108 xtb: 6.4.1 (79825abcba525fcdf90b791dcacef51065a7a4e7)
C         0.88513096603915   -0.80326939217977    0.54394079550002
C         2.28741471466770   -0.55991395314110   -0.04702237800252
C         3.19472764810245   -1.80345769157516   -0.04265562056370
C         3.83489980172630   -2.02918572561471    1.32461418483443
C         4.51383170641891   -0.79192956633196    1.91665596119457
C         5.70565374619332   -0.41703960286338    1.02046357276886
C         5.44740522583438    0.90231170337179    0.26552529595110
C         4.04810021941968    1.25340246650347   -0.28008916044507
C         2.94507032718513    0.67139299103168    0.62360747989875
C         3.50601598595069    0.35221742896818    2.01226488202951
N         2.46150580327729    0.11626586848965    3.00403975650515
N         5.74897035809125    1.94610973450454    1.24584375882477
C         7.03828883767968    2.15613572082329    1.60842830004370
N         8.02218385210094    1.26054240560017    1.45872639402199
S         9.43789884693866    1.92635538547727    2.04344495355523
N         8.69167215262421    3.36342206985978    2.45106648893518
N         7.39883202576984    3.37708108085543    2.18195833723708
H         0.17040230103813   -0.09785780641395    0.10587659451082
H         0.88805752927383   -0.75687426830722    1.63893844130558
H         0.51342394595340   -1.80682814938536    0.32030457612263
H         2.07897338187952   -0.32160239026893   -1.09944624809409
H         4.02787434961745   -1.60465148850562   -0.73019031210189
H         2.56596391226351   -2.65050577920686   -0.35211103351438
H         4.65957806836954   -2.75403914357500    1.35317755940651
H         3.13346868551547   -2.33614615806559    2.11367835165629
H         4.93283309389579   -0.97688265109466    2.91909646220471
H         5.79562464848010   -1.22690026259692    0.28455819035074
H         6.62627061216608   -0.32501050431968    1.61620519912879
H         6.20802729390413    1.00488318226645   -0.51787807941157
H         3.95251833645592    0.76075702084216   -1.25790560331327
H         3.91311439633231    2.32006950257513   -0.52039263202026
H         2.08771860973816    1.35703150530677    0.68821170340152
H         4.03312033619798    1.20971068268438    2.45010489158813
H         2.35434939903272   -0.84104230742542    3.34277983932772
H         1.59169386658382    0.53063278022885    2.66770396772110
H         5.12356074874363    2.69143353006220    1.54614150921049
