36
 energy: -51.097820593769 gnorm: 0.127672417563 xtb: 6.4.1 (79825abcba525fcdf90b791dcacef51065a7a4e7)
C         1.22276499972448    0.13222268503253   -0.72713498426633
C         2.64104547449140    0.04097881416796   -0.13130435163211
C         3.06883041213594   -1.43636733218817   -0.19522075152243
C         4.21157377510767   -1.71150650595740    0.77875887450424
C         4.10383429219818   -1.05110880915353    2.15517883233775
C         5.24093677749670   -0.03129883599928    2.33161196099424
C         5.11503771848071    1.13180148777621    1.32729175655426
C         3.71265178137982    1.77365750401062    1.34597188666166
C         2.62081158734110    0.68973185764696    1.27478321008292
C         2.77421578538897   -0.33919114712298    2.39847672456697
N         1.72145630637484   -1.34989627402066    2.42003432403152
N         6.08443630278284    2.16593610081356    1.69103912804880
C         7.42089968669505    2.04331390789756    1.49933610312611
N         8.07264163952991    1.01896068897424    0.93499545216782
S         9.65886335854703    1.54140110520555    0.95520298917291
N         9.41298345442143    2.98765603155374    1.75273669660349
N         8.12280265927849    3.14874619495062    1.98409105585791
H         1.02022625585609    1.17463840733776   -0.99674644956407
H         0.59109028216938   -0.37444985011805    0.01141150833375
H         1.14850637907218   -0.45223900875152   -1.64811253083449
H         3.28152172138921    0.66087393475090   -0.77423235993603
H         3.38123624690106   -1.71235486993291   -1.21138745280200
H         2.16162737405600   -1.94430886319223    0.16195569078824
H         5.13003276143828   -1.43193699936749    0.24528293639763
H         4.35080475603308   -2.79859575922090    0.86653284357441
H         4.28750953449129   -1.80618003926712    2.93670786000825
H         6.23990402689434   -0.44646562982523    2.14392402386254
H         5.16676543409008    0.41541734140481    3.33453575708404
H         5.38076459372574    0.73457769467043    0.34017971230836
H         3.61983983289624    2.57007608990592    0.59426462429027
H         3.77266231630398    2.29363158053887    2.31538987111899
H         1.63975685232719    1.17395574765825    1.38606978813376
H         2.79597110533053    0.19161427849704    3.35900255606328
H         0.95168894404222   -1.10383756875821    3.04419745619952
H         2.06789404217824   -2.23760976904634    2.78519204057083
H         5.90183075579769    2.73989820128872    2.51204230694496
