36
 energy: -51.092371993803 gnorm: 0.127397956635 xtb: 6.4.1 (79825abcba525fcdf90b791dcacef51065a7a4e7)
C         2.23748620294748    0.43132092893947   -1.13464016709437
C         3.31967430646007   -0.02457064386776   -0.13669684678214
C         3.19133291439500   -1.54995628663300    0.02567314412184
C         3.88133074904897   -2.06887036712130    1.28457402259173
C         3.66614223978336   -1.29020570674620    2.58443556998223
C         5.00275470953288   -0.61123408941353    2.92591423694527
C         5.46566296425370    0.50036645253355    1.96291261249247
C         4.31215536833119    1.46871612175764    1.63014616862427
C         3.04365374216822    0.70907949348394    1.19894616758217
C         2.57944598529339   -0.25679248000090    2.29279486905268
N         1.28396628183112   -0.78474893506119    1.87651803542766
N         6.58113355792741    1.24919490822400    2.54296555230241
C         7.47923615258723    1.86765284595587    1.73745819879082
N         7.41077836064808    1.70163463001130    0.41069562625995
S         8.70363895653346    2.60068472293260   -0.14578625441380
N         9.20883096371842    3.19170698233407    1.33192954199936
N         8.44098039149367    2.71322392228396    2.29395907194367
H         1.28978577489561    0.02126283896883   -0.76849936744165
H         2.43209659530507    0.12928443248527   -2.17005393666654
H         2.17892490585711    1.51496056708739   -1.00195570426453
H         4.29710468597027    0.15825940818991   -0.60471310829083
H         3.53603752213962   -2.01264385721245   -0.90891779915160
H         2.12891980052400   -1.79066283941075    0.17378016196420
H         4.95632383209008   -2.22229721565748    1.11973270905126
H         3.44842130655527   -3.06406488613109    1.46072697490838
H         3.32595559438015   -1.92282019471298    3.42033550973763
H         5.79963825737111   -1.36012710980509    3.02420780109970
H         4.97942316034019   -0.10166876157013    3.90095867998677
H         5.87645728481912    0.04155500558514    1.05542830739532
H         4.51094496587962    2.18888326903410    0.82404295103442
H         4.24010962426132    1.96784076959763    2.60965090076429
H         2.26421928755119    1.46685015953715    1.03283955684826
H         2.38392320128438    0.38775149764806    3.15949635182931
H         0.68283760142429   -0.03585728794229    2.22360867295877
H         1.05808873289865   -1.67090665993196    2.32939586324042
H         6.72440331993460    1.31661129277031    3.54882452581544
