36
 energy: -51.093218958366 gnorm: 0.130238785165 xtb: 6.4.1 (79825abcba525fcdf90b791dcacef51065a7a4e7)
C         2.40217061762986    0.43472870265786   -1.30178983859294
C         3.16519729098885   -0.08978544336676   -0.06990741674100
C         2.92961265603656   -1.60090781748460    0.10515247585829
C         3.90264927230482   -2.07948633959130    1.17956517126522
C         3.73509006445606   -1.28379947469798    2.47612645681239
C         5.00038071558313   -0.54178989001899    2.93721696128679
C         5.35859458030943    0.50775088712750    1.86602183033541
C         4.17031454956085    1.46294685149865    1.63234329963422
C         2.88817306350922    0.71303862959940    1.22512279720746
C         2.59611138804897   -0.27224780445394    2.36038187106081
N         1.28486031624654   -0.91053470414744    2.30119931013443
N         6.46493031469441    1.29373028937244    2.41350495592155
C         7.42063353939183    1.85992753736151    1.63634820214784
N         7.76542079214350    1.52366554978415    0.38710960940255
S         9.09643764540921    2.45112839200597   -0.00995269953410
N         9.04635096326897    3.39542266103611    1.36626309325476
N         8.11390403506521    2.94128139190535    2.18378360673121
H         1.34010483127917    0.58441383958156   -1.07828715896416
H         2.43997126935697   -0.28998561865093   -2.12309440449123
H         2.79089100650363    1.33664523542825   -1.78215686639294
H         4.19144697689642   -0.00071196598084   -0.45293967661578
H         3.17528622201745   -2.03009247201938   -0.87556477846873
H         1.89511804402607   -1.76196097943856    0.44053247327977
H         4.92751483185279   -1.97970558406883    0.79744347653820
H         3.75384686689451   -3.14156455743441    1.42184660983656
H         3.47068027946034   -2.05729262700823    3.21535077724633
H         5.91653140419874   -1.14599066377532    2.90352502528521
H         4.87081867005920    0.06260357673445    3.84762076857523
H         5.58166669954650    0.02727189241600    0.90572684397432
H         4.52685653953022    2.16138315282992    0.86226214168022
H         3.98124543027185    2.07744372832970    2.52698958975958
H         2.06690975115284    1.43468128328950    1.10644538735092
H         2.57457971526253    0.39679282078027    3.23030061109775
H         0.55028575287860   -0.21316586904377    2.17180372866125
H         1.12474575471885   -1.39749540604097    3.18359781249761
H         6.49404396344520    1.73915268461982    3.32869606725618
