36
 energy: -51.090954962593 gnorm: 0.138454790003 xtb: 6.4.1 (79825abcba525fcdf90b791dcacef51065a7a4e7)
C         2.15447062813012    0.44064849207702   -1.15476606353557
C         3.18552782768736    0.13776809136513   -0.05021024186022
C         3.31774297831316   -1.39585308869026   -0.03747847128636
C         4.26751452411912   -1.85824867918840    1.06448549143132
C         3.92136439888159   -1.29147095918683    2.44332844332658
C         4.99600256083079   -0.38175689746420    3.06116031164056
C         5.29469409310185    0.74247193536322    2.04913022296309
C         4.02205614226953    1.58804142517228    1.83837138180744
C         2.87127822303010    0.67993263516125    1.36600898434602
C         2.67022318364313   -0.41518697177477    2.41729029925231
N         1.45410629820595   -1.07112331853302    1.94707831035848
N         6.33987646684811    1.63118656521245    2.55830629859296
C         7.29538707917434    2.04933255526352    1.69223815048671
N         7.47967404730313    1.37802072906323    0.54859213275635
S         8.90357393913606    1.95445327748930   -0.10691247295535
N         9.18691915448712    2.97943937797807    1.18044498917524
N         8.25156517281876    2.97591326900018    2.11272277091747
H         1.44998477210048   -0.38921278261006   -1.27875297834356
H         2.56370680448047    0.53548291619447   -2.16704719917841
H         1.68708447829155    1.39296923656829   -0.89029520876595
H         4.16253986929494    0.52578398739887   -0.37072127661357
H         3.61118731719393   -1.71878037607458   -1.04543167743714
H         2.30879927600279   -1.78807746368686    0.15432766793356
H         5.30601104250347   -1.59601732090775    0.82141703177541
H         4.24062119440614   -2.95674739832733    1.02667173845084
H         3.82921067235254   -2.16413659639891    3.11012611152601
H         5.98450038924297   -0.84674383437761    3.17154591225900
H         4.56631362942719    0.07231817348779    3.96675189599289
H         5.66248671741856    0.33942169522698    1.09778024075985
H         4.23187235243180    2.28372056188967    1.01376957934931
H         3.72190431048024    2.06313760930503    2.78596729413467
H         2.00124478979364    1.34965983441624    1.30409648418102
H         2.51271207269156    0.11013631426886    3.36811270277191
H         0.75658427328968   -0.36738429817366    1.70033814864317
H         1.08989729286612   -1.78684588502288    2.57675085544998
H         6.12034455923962    2.39213089049154    3.19830080917183
