36
 energy: -51.090061983557 gnorm: 0.132501130461 xtb: 6.4.1 (79825abcba525fcdf90b791dcacef51065a7a4e7)
C         2.05402898819147    0.43408635556959   -1.23459259726454
C         3.08599947951213   -0.00164459114254   -0.17627574085236
C         2.96698193181997   -1.52498004083107    0.01059555437683
C         4.06414855166459   -1.96816050220148    0.97496934390384
C         3.86350338920968   -1.38852805436930    2.37712219354892
C         5.02946372127200   -0.48929203064936    2.81990227531740
C         5.23297756661148    0.72680468659398    1.89415776963036
C         4.02740389617279    1.64413369237123    1.60413357493272
C         2.92499563179267    0.63760779032881    1.22508301617998
C         2.72436305979844   -0.37070141528207    2.35996701659115
N         1.45478004460434   -1.09040027593326    2.33795208113540
N         6.35894197056965    1.49504240764778    2.42660035675072
C         7.45171296576026    1.88978681803428    1.72806689605211
N         7.82020737158649    1.43698598332352    0.52318901402582
S         9.19812633836617    2.27556173803814    0.09008199613177
N         9.14203737622663    3.27439116250102    1.42700535211754
N         8.13909370536395    2.99270504485398    2.23866925060922
H         1.01111560954418    0.47058545797270   -0.90091261771504
H         2.15376410713014   -0.30159222740972   -2.04082510936713
H         2.31705611377202    1.40493249703321   -1.66305958982646
H         4.04680036971734    0.18829607248742   -0.67489425497523
H         3.01997881447625   -2.12176453854134   -0.90994825480195
H         1.97786932927970   -1.66438163901798    0.46974741587501
H         5.00714983011422   -1.60318027301245    0.54617961076321
H         4.15273222616156   -3.06110684555934    1.05542942539119
H         3.68149141777452   -2.23041505353303    3.06469380314800
H         5.98912808440540   -1.00659648208270    2.95015668660820
H         4.72239663989946   -0.16733518952844    3.82636463347640
H         5.54394034228787    0.50992751744633    0.86505420150318
H         4.20777354886292    2.34953700682481    0.78082719406514
H         3.75699213276262    2.16014795974511    2.53920164273999
H         2.02132461754458    1.26098485995849    1.16100781255455
H         2.69906311303452    0.12823908814720    3.33733894564886
H         0.66969473438400   -0.43804219062854    2.31081748330996
H         1.25428526190109   -1.65804726599050    3.16195041504222
H         6.21628087130084    2.02428404412638    3.28472306604255
