36
 energy: -51.094321606480 gnorm: 0.120616423836 xtb: 6.4.1 (79825abcba525fcdf90b791dcacef51065a7a4e7)
C         1.93808913450761    0.39585586627583   -1.13314090405404
C         3.03816829827977    0.14180235131509   -0.08426447398647
C         3.40399261263759   -1.35344229658702   -0.07698716312309
C         4.43072828722953   -1.65326001868736    1.01210581174751
C         3.92929073452942   -1.21856219605371    2.39118632548179
C         5.05746335032344   -0.32714651649994    2.93593192834075
C         5.14726301821721    0.92627551081949    2.04252202553767
C         3.79449134942584    1.63726939873710    1.83392933775852
C         2.69822709464195    0.68165515799092    1.32689502719950
C         2.59093258294761   -0.48619694731433    2.31153299678003
N         1.43508023383639   -1.31880025378915    1.99361914024595
N         6.23277287718208    1.82844284786723    2.42884130695307
C         7.38153062488546    1.97056207304322    1.72309463292554
N         7.69688556744496    1.25571610097763    0.63585319313872
S         9.10806598700181    1.88139611816741   -0.00175641057672
N         9.31925607824903    2.98293285408489    1.23525038667276
N         8.31664500908119    2.93899972978966    2.09366886464073
H         1.00548849746314    0.13501232476123   -0.62073527435353
H         2.07697667330551   -0.30391638906204   -1.96513247626366
H         1.87032643735104    1.42374517746848   -1.49942118225540
H         3.92053256077453    0.72799482114648   -0.37692114890276
H         3.77895384550354   -1.54640188112645   -1.09115282238373
H         2.53472743536356   -1.99340457833712    0.13139543165307
H         5.43955981604345   -1.32619481796589    0.72643132047018
H         4.59682209175879   -2.73443865170846    1.12309328021326
H         3.88191029834135   -2.10227690648967    3.04804263334539
H         6.00312043802336   -0.88385316036094    2.97248579155320
H         4.83490249402472   -0.00456368608950    3.96419252885751
H         5.42664838615811    0.50649606159529    1.06860378301245
H         4.00388871056184    2.45191152393570    1.12648930301785
H         3.44130299597338    2.07698158975286    2.78032075257526
H         1.66699124756299    1.05371197247613    1.24056861388425
H         2.49027695446230   -0.00472851701405    3.29280472228620
H         0.60031632177242   -0.76655529831986    1.79147804622356
H         1.23782533376518   -1.73187581552032    2.90567922935837
H         6.10678479761201    2.52213974769875    3.16350796548597
