36
 energy: -51.084349429009 gnorm: 0.129467836520 xtb: 6.4.1 (79825abcba525fcdf90b791dcacef51065a7a4e7)
C         2.37975319674930    0.29585302357103   -1.34622397801044
C         3.27123634271512   -0.11238953132672   -0.15733588181419
C         3.25093632871078   -1.62009799719640    0.15256732502264
C         4.11648253505543   -1.94372975635771    1.36759511496007
C         3.77036079472646   -1.10421551068318    2.59953683052050
C         4.97442005361427   -0.22958373077932    2.98606449072166
C         5.23600766631432    0.84438312547961    1.91113235396625
C         3.95435021491743    1.59943868855771    1.50338283596590
C         2.80573291078979    0.65367635158554    1.10552664928875
C         2.56252001951473   -0.20218171153919    2.35182395167119
N         1.30270620454748   -0.92130624106854    2.51313466130876
N         6.18013112843014    1.85027910333651    2.39927609437666
C         7.31226778129145    2.07361230598425    1.68772183466976
N         7.48897820870512    1.43630499721792    0.52360832874306
S         8.97694833236826    1.90256112833613   -0.07472418401401
N         9.33369266642502    2.92267872279776    1.19817165676161
N         8.36645348118803    2.89273128725105    2.09683336164005
H         1.82224787397336   -0.61058831092302   -1.60679018322576
H         3.11276011744564    0.59306389121798   -2.10487243633667
H         1.65251861423470    1.10305660074517   -1.22431541140846
H         4.34920005320743    0.08011856821881   -0.25098995049587
H         3.67601816945660   -2.21237695618653   -0.66893882839714
H         2.20166145653302   -1.94653872356493    0.18505814923180
H         5.13670767021892   -1.69862511482532    1.04296149240244
H         4.14278763990632   -3.01296962598712    1.62232384480749
H         3.57930990149292   -1.75214173140534    3.47036858367868
H         5.92977845825432   -0.73643103895367    3.17559524966881
H         4.66880659790544    0.27982627117521    3.91235533887970
H         5.85585906931003    0.40718058934807    1.11903016313502
H         4.20697095440286    2.28420104886251    0.68165069783616
H         3.67843398166987    2.15588329268793    2.41331973889195
H         1.96628679216241    1.34631728502251    0.94771467179800
H         2.51742309987060    0.37407725869334    3.28495279781527
H         1.20659313777765   -1.84359317964721    2.08556552344757
H         0.59391663537922   -0.25522559056313    2.20434925775096
H         6.14979092277188    2.42854732488863    3.23683732029592
