36
 energy: -51.086202537925 gnorm: 0.123561794506 xtb: 6.4.1 (79825abcba525fcdf90b791dcacef51065a7a4e7)
C         1.24961713906214   -0.73558621935525   -0.39684994724456
C         2.71608031649250   -0.26974598073763   -0.31118939981356
C         3.68364293035605   -1.46072309937975   -0.18858017861827
C         3.43125835487622   -2.01371424514774    1.21167091424072
C         3.73434620344693   -1.09571655277519    2.39812902189990
C         5.16181464811872   -0.52509284823254    2.42754879438632
C         5.44556206809040    0.64255025228251    1.46141786176679
C         4.25180715010366    1.39309242157181    0.83639783603460
C         2.88686326719508    0.68233245099548    0.89825345792525
C         2.77050808957418    0.08581733146096    2.30379027080657
N         1.42535137067470   -0.29445670322575    2.72359639271403
N         6.32425695976076    1.57401479207704    2.16976047180353
C         7.55530795827692    1.94171794185582    1.73706145232216
N         8.14854020359543    1.54047367172349    0.60585590603043
S         9.50654387915614    2.49512478407237    0.42168495349200
N         9.26772716861673    3.34769727727303    1.83740278370619
N         8.19033145907652    2.93765377016039    2.48170408684079
H         0.62824783304591   -0.35204666031901    0.41993669480570
H         1.13259861415859   -1.81282106978133   -0.23237298176885
H         0.70709598574369   -0.46227428803557   -1.30584986166342
H         2.95423324042341    0.26883459345894   -1.23911739868712
H         4.74471935541343   -1.23540492893407   -0.36094562012658
H         3.44899070280426   -2.21489880410556   -0.95327247525273
H         3.99766383916453   -2.95368601882302    1.25594844562573
H         2.37731500882012   -2.30574763014121    1.32468650248083
H         3.47635876442243   -1.73961040243904    3.25457515551304
H         5.83547121096239   -1.34170635968054    2.13624996386560
H         5.44032969899955   -0.39397357956420    3.48402878259619
H         6.10572271946520    0.29957234197598    0.65560040687196
H         4.37319063949256    1.74292762876849   -0.19841703212444
H         4.10706436430671    2.29121385725055    1.45782598649350
H         2.10557861283425    1.43402162270633    0.71417856869002
H         3.06994881361415    0.81517425783547    3.06747300364274
H         0.96293442071360   -0.94615863695653    2.08789091724733
H         0.80779263253758    0.51461570817020    2.79720041901433
H         5.77425150284159    2.22148359261019    2.73109962121482
