36
 energy: -51.084167471479 gnorm: 0.127775843011 xtb: 6.4.1 (79825abcba525fcdf90b791dcacef51065a7a4e7)
C         0.91768552473532   -0.74582578061209    0.14529368927952
C         2.41066065452019   -0.46831585170126   -0.11714214582672
C         3.21286575628543   -1.78200792208923   -0.09933763573628
C         3.38066320520052   -2.22874761636210    1.35065130263514
C         4.04342039538644   -1.09493845787993    2.13645945933108
C         5.46423205466018   -0.67299486659245    1.72731298454594
C         5.59784136997361    0.57296858183654    0.82896141530910
C         4.39341996034420    0.99481971817411   -0.03730933763786
C         3.07767811570848    0.66970045477216    0.69426325507847
C         3.18819237877195    0.17095610529630    2.13785015610795
N         1.86122059862733   -0.03313896652259    2.71037366428366
N         6.00916172243042    1.69221405268678    1.67724512563709
C         7.27911909762772    2.16416997528960    1.62839369180724
N         8.25312819244792    1.78863186582615    0.79004719683703
S         9.56219029973495    2.77375242652283    1.11461698149314
N         8.85076850722134    3.47746790033605    2.45134201533528
N         7.60088220445593    3.08792315605876    2.62477927254880
H         0.58226481245207    0.29714949067036    0.15148681399236
H         0.60330399763568   -1.20215962546591    1.09086473042758
H         0.50557896810478   -1.34349259221477   -0.67218537341266
H         2.42134610460972   -0.03553162386868   -1.12730047267791
H         4.22596729321327   -1.51295623186176   -0.42735860438741
H         2.83878390578458   -2.57896784150516   -0.75775589243469
H         3.88341603170540   -3.20399635957492    1.40016958323603
H         2.36761940326320   -2.34754478449401    1.76111696712604
H         4.19470206839659   -1.46017059783885    3.16523353044679
H         5.97633993704808   -1.52113805309022    1.25410645801172
H         6.06741421662661   -0.44530619313591    2.61907640202387
H         6.44442311991292    0.42000640378278    0.14874851791432
H         4.47536921076715    0.41662188202469   -0.96840116922109
H         4.33388120503483    2.07475209397787   -0.24694402426188
H         2.40332181816544    1.53708442063128    0.64720490553183
H         3.69786900122218    0.91255455102379    2.76641919454773
H         1.66694837020481    0.71904959796810    3.37304775925021
H         1.85795548298393   -0.92229453404349    3.21115927106447
H         5.55477689035499    1.81209700330022    2.58056454884058
