36
 energy: -51.090219527769 gnorm: 0.127261231638 xtb: 6.4.1 (79825abcba525fcdf90b791dcacef51065a7a4e7)
C         2.19142639406166    0.30158927388470   -1.24064829444382
C         3.26018712915802   -0.02268742454517   -0.17883182708598
C         3.16949964148030   -1.55252555035305   -0.03389044813873
C         3.88543633655902   -2.10856957894355    1.19429926793165
C         3.65303963535918   -1.33943653910200    2.49687017854778
C         4.91381462275029   -0.63705666725678    3.02720218535908
C         5.46967306464329    0.51566187980092    2.16721770393881
C         4.39745943545981    1.50107805519512    1.65895864002826
C         3.15825403915853    0.72644929838026    1.17275094008664
C         2.69890315230192   -0.15722104682995    2.33594741454477
N         1.40082290661685   -0.75360630313724    2.03660741592103
N         6.65299619985118    1.20808530147240    2.67885848036983
C         7.47751713099007    1.86280735003961    1.82479474031231
N         7.28171152656623    1.80295027040555    0.50168297537945
S         8.53033626151673    2.66906990729272   -0.19129950177966
N         9.29424230645271    3.01287955768748    1.25314251134593
N         8.56971121578819    2.60469755604350    2.27904870059478
H         1.18742497431296   -0.09318117896344   -1.04965022916290
H         2.57709273153753   -0.02911460613938   -2.21176999119994
H         2.15251131173290    1.39321622574937   -1.28696970853045
H         4.20290218802776    0.20197198011252   -0.69714899284692
H         3.47081465231940   -1.97422801908557   -1.00225896880886
H         2.11776359439490   -1.80935147559972    0.15712970946407
H         4.96596326245407   -2.01946969679257    1.01867073731280
H         3.51283638180385   -3.14206199063466    1.23806340456648
H         3.29075252194936   -2.07487028924910    3.23344470444006
H         5.76728553287165   -1.31992719057395    3.13113027435541
H         4.65523586616234   -0.19909210089168    4.00302846602558
H         5.87912963716289    0.13117952479222    1.22524831286336
H         4.85950916968593    2.17715749892831    0.92589175128002
H         4.16257204371530    2.17550770175086    2.49783770602173
H         2.35164190747056    1.47125044680373    1.10971121404283
H         2.66967474859871    0.47306019510339    3.23412826739092
H         0.71746412104437   -0.08778512581854    1.67278159238013
H         1.01907203333500   -1.36956529775068    2.75511649936888
H         6.69519306599622    1.50215204519625    3.65280285651590
