36
 energy: -51.089571232741 gnorm: 0.121794098479 xtb: 6.4.1 (79825abcba525fcdf90b791dcacef51065a7a4e7)
C         2.33064525163643    0.47718175692124   -1.22652805333049
C         3.25940776369217   -0.07114358072938   -0.12580158825090
C         3.15617311519952   -1.60206741549969   -0.00230303501140
C         3.79149550780530   -2.20549491954511    1.24767341338041
C         3.64723758625555   -1.34555825903035    2.50543475049685
C         4.98677022608556   -0.67539647483811    2.85282317727050
C         5.38536183797299    0.52061011552809    1.96512668523311
C         4.20520661652904    1.49346765441983    1.76563640434522
C         3.02359119914030    0.67703818267145    1.20948376944081
C         2.61140839694945   -0.23060028404131    2.37189526954136
N         1.29844264067968   -0.84353561089973    2.19661422193598
N         6.53657455403292    1.24706872161694    2.50219966335186
C         7.45514813911297    1.88165324311374    1.73314461030877
N         7.68173864515882    1.59407228210817    0.44531644324078
S         8.97770605763950    2.47350489926021   -0.13478561715535
N         9.05678142611524    3.38070546103315    1.26482306978437
N         8.15499875034532    3.01315917889341    2.15686516054275
H         1.26028742346021    0.27674190314270   -1.10610860416746
H         2.64002250447515    0.23957726370611   -2.25074032731552
H         2.31668569739514    1.57015002376357   -1.20339829848188
H         4.31296442757085    0.05337303103959   -0.41276894478903
H         3.71618056292277   -1.92512834361692   -0.89021330370297
H         2.09776687080114   -1.89386691890802   -0.05910349139584
H         4.84887189543694   -2.24722662059368    0.95350290029145
H         3.48808007512060   -3.25617385455306    1.36109959754077
H         3.34409173839757   -1.88517275422641    3.41734244906679
H         5.78397985554389   -1.43032058581782    2.86132207923769
H         4.88592481726028   -0.24866585837272    3.86210217710185
H         5.70915718547495    0.16117063763448    0.98087693017871
H         4.48100066285696    2.38756387084967    1.18901686295611
H         3.85253512690305    1.79187754224310    2.76579636053047
H         2.19215551928071    1.38858240578488    1.10110710201802
H         2.78078425381531    0.33784480462917    3.29548590738538
H         0.59812472462238   -0.18132537804028    1.85942177855248
H         0.88426568522964   -1.18343322574723    3.06513111800184
H         6.39429358395974    1.72213447945193    3.39152084106588
