36
 energy: -51.089682847791 gnorm: 0.133001197126 xtb: 6.4.1 (79825abcba525fcdf90b791dcacef51065a7a4e7)
C         2.16644713366877    0.47134102504543   -1.23277301502778
C         3.14047383187234   -0.00324186760627   -0.13691620037864
C         3.19419566885405   -1.53882928551812   -0.04352376043879
C         4.02228622823675   -1.92034450686307    1.18077703995164
C         3.77414102876522   -1.24199221087765    2.53004608842608
C         4.97066256004615   -0.43966983055303    3.06740829234139
C         5.34847728107350    0.57271921501735    1.96757354224868
C         4.13684435601483    1.46038106265661    1.61683643776407
C         2.87078137159023    0.67340671041384    1.22975305047377
C         2.55651771253414   -0.34052846805434    2.33341801015962
N         1.37450596893472   -1.17097575535788    2.12485709816984
N         6.46034338285420    1.39024769966949    2.45427788647683
C         7.41981574507973    1.89115574693414    1.63792958756379
N         7.48544799760862    1.78486475424878    0.30490967150539
S         8.89394222112566    2.58455783219852   -0.10262766170183
N         9.41874338525660    2.88986297195961    1.45286028870864
N         8.43552189113102    2.59794615745070    2.28478662654965
H         1.15378905224480    0.17299660871533   -0.93975929141428
H         2.46449156022822    0.09679567978750   -2.21870720672747
H         2.24580600110154    1.55669375239732   -1.33775436187360
H         4.12300645102154    0.35665043459855   -0.47298672495676
H         3.65780827550596   -2.03528798984829   -0.90663059000062
H         2.18426746031080   -1.92279831252990    0.15947812016166
H         5.07623798294047   -1.74460705076060    0.92656325061602
H         3.85489837714573   -2.99693376338419    1.32838962064708
H         3.55684529733192   -2.07658298329912    3.21626587594056
H         5.75269899417601   -1.17347893205138    3.30292689879014
H         4.57270319571698    0.13431177218675    3.91775313209141
H         5.69274287441343    0.19607482310342    0.99679657849184
H         4.51002948373655    2.19455396319442    0.88904288743276
H         3.78946009889548    2.07961748792142    2.45922349862684
H         1.98446675461049    1.32040186231071    1.30165263296081
H         2.54035629385744    0.23739570638903    3.26646679757131
H         0.54765849192051   -0.61868557069378    1.89255320698977
H         1.20546401123137   -1.65125775944655    3.00924871359805
H         6.54015277130232    1.81555589056492    3.37599742032474
