36
 energy: -51.082066877521 gnorm: 0.143567842351 xtb: 6.4.1 (79825abcba525fcdf90b791dcacef51065a7a4e7)
C         1.48083238135621    0.29028175498840   -0.84223370416320
C         2.88110824493077    0.13463884792260   -0.21784449613040
C         3.34040454240688   -1.33384457618087   -0.26517555116091
C         4.27476850323711   -1.80240952150842    0.84730417160699
C         4.12139289764474   -1.17461298317571    2.23460810960254
C         5.18050120791540   -0.13998328768478    2.64930561202465
C         5.14762763252262    1.13441554723982    1.78204621095096
C         3.70080615076194    1.64560500194187    1.62581786107776
C         2.65058271875888    0.58507911328661    1.24582680860298
C         2.74291362076610   -0.51954393276066    2.30232358012047
N         1.58165387600447   -1.40345768012859    2.32387297648533
N         6.07419960546704    2.23518472664037    2.04897635353424
C         7.36605004045241    2.10255600972674    1.65980712017774
N         7.78525028753294    1.30497294389032    0.66951430367211
S         9.41462141891622    1.59983494545360    0.45120767296733
N         9.42648268152860    2.88581345293328    1.51623764490773
N         8.25443002967585    3.09043502659099    2.08935539591536
H         0.75728286460011   -0.13311126608838   -0.13685630821069
H         1.48055253484936   -0.27706649742189   -1.77994197973789
H         1.16273646173569    1.32786476596392   -0.97469477855107
H         3.64933607071754    0.79708428770436   -0.64072538852904
H         3.75972846413652   -1.55907838266869   -1.25502325063815
H         2.46945428727716   -2.00405898814668   -0.23593088604131
H         5.26265728607210   -1.43669255200637    0.53641922853658
H         4.18593029242189   -2.89702376993892    0.90002982175894
H         4.14221364445170   -2.09311351339755    2.84336095815907
H         6.14486122906997   -0.66324008993483    2.60761819959064
H         4.92232932581979    0.08790511226219    3.69445010244240
H         5.52949909950490    0.79646835903618    0.81109123132192
H         3.74012447410155    2.48934310668716    0.92259634173874
H         3.50245916893474    2.17138177877778    2.57342683575109
H         1.67597861056990    1.08126700511896    1.36102347840932
H         2.65399251710009    0.12497222980242    3.18636516670123
H         0.76908825579488   -0.82243324853693    2.53556619295204
H         1.70103721995460   -2.03636806390738    3.11543256022729
H         6.09663460363181    2.68955419709244    2.95994756087656
