36
 energy: -51.094174431334 gnorm: 0.120326664152 xtb: 6.4.1 (79825abcba525fcdf90b791dcacef51065a7a4e7)
C         2.39241955113605    0.33706394251587   -1.25197428214663
C         3.27790516015965   -0.24581340529212   -0.13348048858960
C         3.02894117914318   -1.74685456451545    0.10003466831952
C         3.72289812519677   -2.23300130559620    1.36979268631544
C         3.63449572209149   -1.30375937765387    2.58262380590348
C         4.95261745655037   -0.63501607330697    3.00627531467427
C         5.49925353827397    0.42065371293154    2.02440857784458
C         4.39095485604428    1.39445440358955    1.57451898322034
C         3.12320661136847    0.64486987350528    1.12394699671756
C         2.61380933007554   -0.20496071278375    2.29151069172020
N         1.23452874585198   -0.60013747251401    2.02371870395107
N         6.76200152329683    1.01475963328265    2.46484676425783
C         7.49701034245914    1.84789494241415    1.68795026456108
N         7.36639655241679    1.95783076826901    0.36001894829358
S         8.63766693629720    2.92550276078982   -0.12673991480892
N         9.13225429120137    3.36045866191244    1.40765474203181
N         8.48283234090145    2.62870300520301    2.29468695359612
H         1.33572624381908    0.37958336304858   -0.96573280080991
H         2.62581924792769   -0.21712155575413   -2.16826242046148
H         2.77705779617540    1.33325721375905   -1.48641372607486
H         4.29507225588286   -0.13592756345368   -0.53489354140402
H         3.41347853424237   -2.19943890707625   -0.82390242356911
H         1.93412206735913   -1.84414091943945    0.12247253275578
H         4.80435220134419   -2.37112178223397    1.23674219436352
H         3.41682915426719   -3.27176657018471    1.55990084674273
H         3.23421263045780   -1.85022010586556    3.45199767352866
H         5.69710464880179   -1.42918443092930    3.14966722730692
H         4.80144340388324   -0.20747034363584    4.00890382524776
H         5.69537386109282   -0.09079222133293    1.07427828026815
H         4.73620527382443    1.89117616141948    0.65689700387081
H         4.20564214385762    2.14243081822679    2.36187913952462
H         2.43859920937812    1.48023403201658    0.91705249201181
H         2.61585715393114    0.40733087925187    3.20251695983223
H         0.75332004759279    0.29931513940105    1.97800772909763
H         0.85835039138248   -1.23742808707234    2.72638863985920
H         6.95688470284601    1.01443218222508    3.46426855057211
