36
 energy: -51.090099627271 gnorm: 0.125259987652 xtb: 6.4.1 (79825abcba525fcdf90b791dcacef51065a7a4e7)
C         1.85562844403877    0.35435184400492   -1.10689186908885
C         3.02756518019260    0.06223336129478   -0.14976585104412
C         3.44884356950599   -1.41714542259807   -0.08976675463916
C         4.35593801104831   -1.71495332868658    1.10132117363817
C         3.96794865372855   -1.11749039468974    2.45585695735105
C         5.08667283302900   -0.14847444757279    2.87251922978059
C         5.09768167155891    1.01197767048514    1.85736322896518
C         3.70539395463030    1.66984105261426    1.76924330312720
C         2.68272112053783    0.64562031702470    1.24275505407217
C         2.60719798660218   -0.43556981344422    2.32452525425365
N         1.52435625009040   -1.37617314018727    2.05431920041243
N         6.10711595272479    2.03526638803386    2.13195891747559
C         7.37575325055874    1.98821581226115    1.65628439628450
N         7.62073910334769    1.43601328466828    0.46146150259069
S         9.18106559392577    1.91081397935891    0.10174326128997
N         9.48404059984778    2.70173650747314    1.54077694769617
N         8.41590597954478    2.64643924452412    2.31542009166101
H         0.79321937497787    0.45362471390645   -0.85834670334426
H         1.79732491312044   -0.46861761694689   -1.82835073989979
H         2.11889599749133    1.24443465964937   -1.68460481070089
H         3.83223214952604    0.68005162575968   -0.57243345287997
H         3.93107549588341   -1.66073793924020   -1.04604933366883
H         2.53541241447667   -2.00551232402350    0.07775905345496
H         5.35411565291863   -1.29860351996075    0.90996586801434
H         4.52244281772265   -2.79348627349120    1.23509502913848
H         3.83890691235271   -1.82030096685158    3.29494118341883
H         6.06457258978292   -0.63471197096922    2.98570464241315
H         4.79125414760452    0.28939481822441    3.83787470459795
H         5.33184340858723    0.71455760871562    0.82804437500134
H         3.71862022951332    2.53972687137765    1.09761529398221
H         3.33744519002268    1.96168582363475    2.76583041960828
H         1.74507676868707    1.21999483836427    1.22717010157612
H         2.42051926871005   -0.00221143704942    3.31557983631018
H         0.59639402432679   -1.01978925833641    2.28786350192656
H         1.66592830413257   -2.20562391058750    2.63169541662935
H         6.00336002091993    2.37265269753921    3.08706555027877
