36
 energy: -51.089172956535 gnorm: 0.134191558457 xtb: 6.4.1 (79825abcba525fcdf90b791dcacef51065a7a4e7)
C         1.58456011142361    0.05149845507377   -1.09270553793366
C         2.79191720605015   -0.16450183926711   -0.15970404402646
C         3.01463934642680   -1.66998790198741    0.07169053336698
C         4.13889763982103   -1.86029259478209    1.08659332791688
C         3.87804972217122   -1.19997576484313    2.44239746815580
C         5.03087686810431   -0.23465671536163    2.76378788282614
C         5.27711781329999    0.80877118495722    1.65566532350765
C         3.97068868633225    1.54425592634766    1.29328497168635
C         2.72938790655334    0.64220659192914    1.16078212653999
C         2.66650847416621   -0.27090988706476    2.38844941930142
N         1.41437178460199   -1.01261374765108    2.27744852093611
N         6.26325643951727    1.77126721326681    2.14822206705853
C         7.50298825379627    1.92736045364511    1.62227480309076
N         7.90155598520100    1.79026957529208    0.35148871182747
S         9.43212562436460    2.44538521986620    0.21870417462287
N         9.47837316503519    2.93173765007655    1.81541727649908
N         8.43188362567669    2.49838651710615    2.49446646368538
H         0.72850875200836   -0.02493048668905   -0.41323698969173
H         1.52650513899140   -0.61178525488327   -1.96326010719730
H         1.63714601294968    1.04683239546146   -1.54198776756123
H         3.73402990159211    0.06944354226922   -0.67499952466327
H         3.28869500238502   -2.19182344355925   -0.85510094999872
H         2.01691703395536   -2.06144672830251    0.31644986099345
H         5.16100337753769   -1.68684806008547    0.72390965945955
H         4.16864318602597   -2.94785571815152    1.24525726418779
H         3.79905659694144   -1.90298096003807    3.28750133683708
H         5.95715656191901   -0.78141221294554    2.98421960478283
H         4.69342893301952    0.30891959421378    3.65909038043514
H         5.70960444316600    0.25068539963594    0.81644946237889
H         4.21152904994558    1.97355878527746    0.31060729623888
H         3.84266491931822    2.27818270852814    2.10489258378673
H         1.88342963125686    1.34482477510036    1.16363642596197
H         2.69099234315716    0.40771059626149    3.25083700657859
H         0.65672970513506   -0.36293415055690    2.06166808533402
H         1.10616935913258   -1.56582360946329    3.07767637719775
H         6.27164432493468    1.84097996353044    3.16404354137131
