36
 energy: -51.085487915235 gnorm: 0.119783955857 xtb: 6.4.1 (79825abcba525fcdf90b791dcacef51065a7a4e7)
C         1.07902651333084   -0.27831375794109   -0.24963885482998
C         2.58877228484935   -0.58602614415234   -0.27861962297325
C         2.89792927176672   -1.98286743670808    0.28961736467102
C         2.90818913491566   -2.03795894455752    1.81508776870645
C         3.95511569848387   -1.06599190434880    2.36416853654397
C         5.36859968043180   -1.28097752457810    1.79849431943814
C         5.87991508500187   -0.10294684959650    0.94519935663004
C         4.90684849091913    0.40456753379144   -0.13858335099573
C         3.46839880911365    0.48961896532685    0.40520560943875
C         3.57901250895216    0.34837452208755    1.92596764076596
N         2.39950219804957    0.71373889253393    2.70414270025451
N         6.31111268199339    0.95202105244866    1.86312719045171
C         7.25143410342284    1.91704438332247    1.71330661979999
N         7.69287052587903    2.51028674711160    0.59717722199541
S         8.84995018043338    3.63049609200622    1.03961293752844
N         8.67020728186062    3.40331544128271    2.68407385078235
N         7.75620758510516    2.47273108205164    2.89061359180213
H         0.93329362714284    0.80169546709083   -0.13701193566841
H         0.57820159992531   -0.98056595870230    0.42652472042342
H         0.56143128028409   -0.56526474311931   -1.16891235109191
H         2.95681565078149   -0.55626502262836   -1.31374984506440
H         3.86783447235831   -2.21971465493694   -0.16814742092529
H         2.19402435151446   -2.66683936626467   -0.20565753593648
H         3.15930384902289   -3.04224707652101    2.18206100085790
H         1.91387355146954   -1.77892015788122    2.20635241160858
H         3.91299084831066   -1.21076430576091    3.45592090425596
H         5.36024774001903   -2.16527400758249    1.14774415513312
H         6.12453166195182   -1.46374956352252    2.57700192595885
H         6.82133073009704   -0.42552466005633    0.48425701034565
H         4.94935377356885   -0.32794360951500   -0.95686274859174
H         5.26887178709136    1.40765053245414   -0.41518624674027
H         3.01053349236069    1.43658946235714    0.08437526623831
H         4.38701243264234    1.00767875891114    2.26844630234746
H         1.60607543202895    0.19705999883687    2.32180360083840
H         2.20959491520944    1.71454942274495    2.64324917634558
H         6.34855243311600    0.71972761325209    2.85381459020692
