36
 energy: -51.093429164055 gnorm: 0.122042721484 xtb: 6.4.1 (79825abcba525fcdf90b791dcacef51065a7a4e7)
C         2.07732790732065    0.00879905522456   -1.25452103176166
C         3.09262748254996   -0.35109935446261   -0.15247793160444
C         2.83180400313071   -1.80388531008377    0.28458153874652
C         3.49873874568997   -2.23857846189696    1.58705617964097
C         3.62433994141101   -1.16284896894562    2.66839573130453
C         5.07921727129921   -0.67397301815593    2.76045733232979
C         5.56099525898743    0.35106204341412    1.71427136158278
C         4.43213730736326    1.28168235235642    1.22576346633101
C         3.04413356629617    0.64211869694172    1.03476189374467
C         2.63750756799953   -0.04310750740200    2.34244032564767
N         1.27677843425545   -0.56325262336164    2.25212201353324
N         6.65062429115084    1.15880407161166    2.26358141972627
C         7.61229115551656    1.84708796955208    1.60072190216699
N         7.86528807664188    1.83740741831647    0.28601801656975
S         9.02370272889229    3.01057707766402    0.01918451987498
N         9.12553189681837    3.46506256688003    1.62269442461476
N         8.28726301223112    2.78548567324893    2.38395777480488
H         2.19045617245297    1.03521441058535   -1.62060344684692
H         1.04626798510566    0.01689122811655   -0.88299596093814
H         2.07236961114713   -0.68543211760116   -2.09910847354266
H         4.08389016565823   -0.24526636602912   -0.61511589182303
H         3.13991301660878   -2.47963350791417   -0.52461219960255
H         1.74290810952560   -1.81461874617318    0.43553680422389
H         4.49162180462690   -2.67986659625574    1.42652390620611
H         2.88758253042104   -3.07319531684466    1.95955500288921
H         3.30518097156355   -1.57190717685945    3.64074634398692
H         5.81789296701507   -1.48608310620014    2.74145182776836
H         5.16513845343993   -0.02274929410309    3.64331524397862
H         5.99420493688508   -0.12965571199229    0.82881807819682
H         4.70879542023836    1.71608194781406    0.25482694704247
H         4.42957356585480    2.08984450832527    1.97450433455052
H         2.40772918705369    1.52901811829054    0.90162752799899
H         2.77877520574137    0.79010912384330    3.04289095196769
H         0.65826423110513    0.24760164338373    2.30332590164653
H         1.16829168211815   -1.28641040964384    2.96392813606704
H         6.54442110434580    1.59001343989528    3.17987987677866
