36
 energy: -51.095599833277 gnorm: 0.119939064371 xtb: 6.4.1 (79825abcba525fcdf90b791dcacef51065a7a4e7)
C         2.02919492840311    0.31831069050130   -1.33189236034886
C         3.04970501996545   -0.13068119181733   -0.26801993703632
C         2.90026030139135   -1.63269227371764    0.03408253474803
C         3.94127749046873   -2.00031844761938    1.08828104850462
C         3.78594508701070   -1.27890882110194    2.42906620709718
C         5.08273841072184   -0.61608652627851    2.92215523680006
C         5.46749001523387    0.51579188481481    1.94843583302698
C         4.30464020372605    1.40363096466135    1.46003385278499
C         3.01359898897885    0.66521576399494    1.05999231838188
C         2.70574832895645   -0.20908125845760    2.27889971127076
N         1.37344828000764   -0.80279692629804    2.33153431597142
N         6.45092032474880    1.41312682362334    2.55600065012175
C         7.44977118074460    1.97569966411946    1.83230914577826
N         7.55055297528183    1.68492593122560    0.52929681502513
S         8.88068333484848    2.54053814198224   -0.00748306992260
N         9.22149120378927    3.21947445965416    1.47948220408114
N         8.34303754489946    2.88253206615305    2.40621321009593
H         0.98764604826521    0.13791353715370   -1.04383747192374
H         2.28355585977421   -0.30265821786526   -2.19842514168411
H         2.19311117276293    1.36855487535096   -1.58768147828846
H         4.06813411623793   -0.17327779054362   -0.67890182048662
H         3.18708170678742   -2.13666522930613   -0.89871221515672
H         1.90899629735318   -1.95613377049180    0.38247632951010
H         4.90121923286370   -1.72337567735545    0.63206053236448
H         4.04664173294723   -3.09025144144675    1.18726102789242
H         3.38039824305821   -1.96211926524324    3.19288034378898
H         5.93519212142125   -1.30744006466106    2.95179905735036
H         4.98446023369041   -0.18857418656488    3.93135664061377
H         6.05318605191917    0.09694168153816    1.12120408146541
H         4.55350096956075    2.00253086592616    0.57270771802542
H         4.15888412095449    2.09902414598843    2.30201308072268
H         2.23988057300068    1.44649329015875    1.07705464173915
H         2.80256951440476    0.47505898019310    3.13178621041517
H         0.68849858336413   -0.04721404372622    2.28049786663847
H         1.22274367255019   -1.34089698050114    3.18542597600442
H         6.39722676297533    1.44834116881379    3.57221934812110
