36
 energy: -51.088796124979 gnorm: 0.125030710539 xtb: 6.4.1 (79825abcba525fcdf90b791dcacef51065a7a4e7)
C         2.26117625984254    0.26140980336454   -1.22386732267577
C         3.29162849775576   -0.22286966140180   -0.18535845046777
C         2.91576275129496   -1.68497988044239    0.11563248530287
C         3.70223926011559   -2.26721838627030    1.28723535994194
C         3.67639789677185   -1.32997432050324    2.49685124165958
C         4.99798027133078   -0.61155264939020    2.81533731595049
C         5.46142623989622    0.50261486508574    1.85556623355214
C         4.32549549569479    1.46182580110136    1.44496899731033
C         3.06686537346463    0.65800803734079    1.06839916404887
C         2.66479065956922   -0.20891777960654    2.26492666139583
N         1.31206419521694   -0.75122739694409    2.18540631751559
N         6.51182728622750    1.33995141997731    2.43608776562374
C         7.55750262043490    1.83893344687411    1.73216971937585
N         7.66127791648515    1.75398155875030    0.40004311152793
S         8.84259517969334    2.85630371799739   -0.02283636097761
N         9.25868795242474    3.25833610365978    1.54349917662665
N         8.39333029416058    2.73947002954818    2.39554112333914
H         1.27786902018021    0.29020285731985   -0.74155968638582
H         2.28571516836022   -0.36424844358676   -2.12338415215799
H         2.41800255879836    1.27264271821428   -1.60873477750398
H         4.23993266609207   -0.14722845053599   -0.73566182674906
H         3.02735009431757   -2.32132125849474   -0.77261252941686
H         1.87398685698995   -1.70727445752179    0.46606493214947
H         4.76120247996370   -2.41474572870546    1.03592843011706
H         3.17114107630420   -3.20214655232606    1.51679281527191
H         3.33171801942700   -1.80823462916046    3.42804382356056
H         5.82970443446711   -1.32513682241897    2.74782191364010
H         4.89596647908142   -0.18826796472906    3.82594907007907
H         5.99142364148114    0.07362954368586    0.99657727344928
H         4.51955814238122    2.22264208900735    0.67590549011245
H         4.16172203996295    2.02675566072717    2.37651503950430
H         2.16020148742213    1.24410567283113    0.85917195687198
H         2.73255791740817    0.47192653503878    3.12323673812477
H         0.66582691614168    0.02905625086088    2.31268987844055
H         1.25480701896241   -1.39328536194063    2.97653064325292
H         6.43395270156213    1.59711395226786    3.41824175115193
